<?xml version="1.0"?>
<rdf:RDF
    xmlns:rdf="http://www.w3.org/1999/02/22-rdf-syntax-ns#"
    xmlns:j.0="http://www.wings-workflows.org/ontology/workflow.owl#"
    xmlns:owl="http://www.w3.org/2002/07/owl#"
    xmlns:rdfs="http://www.w3.org/2000/01/rdf-schema#"
    xmlns:xsd="http://www.w3.org/2001/XMLSchema#"
      xml:base="http://localhost:8080/wings-portal/export/users/lucas/TACC/workflows/MODFLOW-96-2005-Comparison.owl">
      <owl:Ontology rdf:about="">
            <owl:imports rdf:resource="http://www.wings-workflows.org/ontology/workflow.owl"/>
      </owl:Ontology>
      <j.0:WorkflowTemplate rdf:ID="MODFLOW-96-2005-Comparison">
            <j.0:hasLink>
                  <j.0:InputLink rdf:ID="MODFLOW-96_node_HFB_input">
                        <j.0:hasVariable>
                              <j.0:DataVariable rdf:ID="HFB">
                                    <rdfs:comment rdf:datatype=
                                    "http://www.w3.org/2001/XMLSchema#string"
                                    >center:x=264.0973690032959,y=30.00095272064209</rdfs:comment>
                              </j.0:DataVariable>
                        </j.0:hasVariable>
                        <j.0:hasDestinationNode>
                              <j.0:Node rdf:ID="MODFLOW-96_node">
                                    <j.0:hasInputPort>
                                          <j.0:Port rdf:ID="MODFLOW-96_node_OutputControl">
                                                <j.0:satisfiesRole>
                                                      <rdf:Description rdf:ID="MODFLOW-96_node_OutputControl_role">
                                                            <j.0:hasDimensionality
                                                             rdf:datatype=
                                                            "http://www.w3.org/2001/XMLSchema#integer"
                                                            >0</j.0:hasDimensionality>
                                                            <j.0:hasRoleID
                                                             rdf:datatype=
                                                            "http://www.w3.org/2001/XMLSchema#string"
                                                            >OutputControl</j.0:hasRoleID>
                                                      </rdf:Description>
                                                </j.0:satisfiesRole>
                                          </j.0:Port>
                                    </j.0:hasInputPort>
                                    <j.0:hasInputPort>
                                          <j.0:Port rdf:ID="MODFLOW-96_node_BCF">
                                                <j.0:satisfiesRole>
                                                      <rdf:Description rdf:ID="MODFLOW-96_node_BCF_role">
                                                            <j.0:hasDimensionality
                                                             rdf:datatype=
                                                            "http://www.w3.org/2001/XMLSchema#integer"
                                                            >0</j.0:hasDimensionality>
                                                            <j.0:hasRoleID
                                                             rdf:datatype=
                                                            "http://www.w3.org/2001/XMLSchema#string"
                                                            >BCF</j.0:hasRoleID>
                                                      </rdf:Description>
                                                </j.0:satisfiesRole>
                                          </j.0:Port>
                                    </j.0:hasInputPort>
                                    <j.0:hasInputPort>
                                          <j.0:Port rdf:ID="MODFLOW-96_node_BAS">
                                                <j.0:satisfiesRole>
                                                      <rdf:Description rdf:ID="MODFLOW-96_node_BAS_role">
                                                            <j.0:hasDimensionality
                                                             rdf:datatype=
                                                            "http://www.w3.org/2001/XMLSchema#integer"
                                                            >0</j.0:hasDimensionality>
                                                            <j.0:hasRoleID
                                                             rdf:datatype=
                                                            "http://www.w3.org/2001/XMLSchema#string"
                                                            >BAS</j.0:hasRoleID>
                                                      </rdf:Description>
                                                </j.0:satisfiesRole>
                                          </j.0:Port>
                                    </j.0:hasInputPort>
                                    <j.0:hasInputPort>
                                          <j.0:Port rdf:ID="MODFLOW-96_node_RECHARGE">
                                                <j.0:satisfiesRole>
                                                      <rdf:Description rdf:ID="MODFLOW-96_node_RECHARGE_role">
                                                            <j.0:hasDimensionality
                                                             rdf:datatype=
                                                            "http://www.w3.org/2001/XMLSchema#integer"
                                                            >0</j.0:hasDimensionality>
                                                            <j.0:hasRoleID
                                                             rdf:datatype=
                                                            "http://www.w3.org/2001/XMLSchema#string"
                                                            >RECHARGE</j.0:hasRoleID>
                                                      </rdf:Description>
                                                </j.0:satisfiesRole>
                                          </j.0:Port>
                                    </j.0:hasInputPort>
                                    <rdfs:comment rdf:datatype=
                                    "http://www.w3.org/2001/XMLSchema#string"
                                    >center:x=411.4964668273926,y=103.33055591583252</rdfs:comment>
                                    <j.0:hasInputPort>
                                          <j.0:Port rdf:ID="MODFLOW-96_node_MT3D">
                                                <j.0:satisfiesRole>
                                                      <rdf:Description rdf:ID="MODFLOW-96_node_MT3D_role">
                                                            <j.0:hasDimensionality
                                                             rdf:datatype=
                                                            "http://www.w3.org/2001/XMLSchema#integer"
                                                            >0</j.0:hasDimensionality>
                                                            <j.0:hasRoleID
                                                             rdf:datatype=
                                                            "http://www.w3.org/2001/XMLSchema#string"
                                                            >MT3D</j.0:hasRoleID>
                                                      </rdf:Description>
                                                </j.0:satisfiesRole>
                                          </j.0:Port>
                                    </j.0:hasInputPort>
                                    <j.0:hasOutputPort>
                                          <j.0:Port rdf:ID="MODFLOW-96_node_HEADS">
                                                <j.0:satisfiesRole>
                                                      <rdf:Description rdf:ID="MODFLOW-96_node_HEADS_role">
                                                            <j.0:hasDimensionality
                                                             rdf:datatype=
                                                            "http://www.w3.org/2001/XMLSchema#integer"
                                                            >0</j.0:hasDimensionality>
                                                            <j.0:hasRoleID
                                                             rdf:datatype=
                                                            "http://www.w3.org/2001/XMLSchema#string"
                                                            >HEADS</j.0:hasRoleID>
                                                      </rdf:Description>
                                                </j.0:satisfiesRole>
                                          </j.0:Port>
                                    </j.0:hasOutputPort>
                                    <j.0:hasInputPort>
                                          <j.0:Port rdf:ID="MODFLOW-96_node_DRN">
                                                <j.0:satisfiesRole>
                                                      <rdf:Description rdf:ID="MODFLOW-96_node_DRN_role">
                                                            <j.0:hasDimensionality
                                                             rdf:datatype=
                                                            "http://www.w3.org/2001/XMLSchema#integer"
                                                            >0</j.0:hasDimensionality>
                                                            <j.0:hasRoleID
                                                             rdf:datatype=
                                                            "http://www.w3.org/2001/XMLSchema#string"
                                                            >DRN</j.0:hasRoleID>
                                                      </rdf:Description>
                                                </j.0:satisfiesRole>
                                          </j.0:Port>
                                    </j.0:hasInputPort>
                                    <j.0:hasInputPort>
                                          <j.0:Port rdf:ID="MODFLOW-96_node_PCG">
                                                <j.0:satisfiesRole>
                                                      <rdf:Description rdf:ID="MODFLOW-96_node_PCG_role">
                                                            <j.0:hasDimensionality
                                                             rdf:datatype=
                                                            "http://www.w3.org/2001/XMLSchema#integer"
                                                            >0</j.0:hasDimensionality>
                                                            <j.0:hasRoleID
                                                             rdf:datatype=
                                                            "http://www.w3.org/2001/XMLSchema#string"
                                                            >PCG</j.0:hasRoleID>
                                                      </rdf:Description>
                                                </j.0:satisfiesRole>
                                          </j.0:Port>
                                    </j.0:hasInputPort>
                                    <j.0:hasPortSetCreationRule>
                                          <j.0:PortSetRule rdf:ID="MODFLOW-96_node_prule">
                                                <j.0:createSetsOn>
                                                      <j.0:XProduct rdf:ID="_xprod-e6f160df-d9e1-4535-a4de-eee870e856e5">
                                                            <j.0:hasExpressionArgument>
                                                            
      <j.0:Port rdf:ID="MODFLOW-96_node_NAM">
            <j.0:satisfiesRole>
                  <rdf:Description rdf:ID="MODFLOW-96_node_NAM_role">
                        <j.0:hasDimensionality rdf:datatype="http://www.w3.org/2001/XMLSchema#integer"
                        >0</j.0:hasDimensionality>
                        <j.0:hasRoleID rdf:datatype="http://www.w3.org/2001/XMLSchema#string"
                        >NAM</j.0:hasRoleID>
                  </rdf:Description>
            </j.0:satisfiesRole>
      </j.0:Port>                                           </j.0:hasExpressionArgument>
                                                            <j.0:hasExpressionArgument>
                                                            
      <j.0:Port rdf:ID="MODFLOW-96_node_SIP">
            <j.0:satisfiesRole>
                  <rdf:Description rdf:ID="MODFLOW-96_node_SIP_role">
                        <j.0:hasDimensionality rdf:datatype="http://www.w3.org/2001/XMLSchema#integer"
                        >0</j.0:hasDimensionality>
                        <j.0:hasRoleID rdf:datatype="http://www.w3.org/2001/XMLSchema#string"
                        >SIP</j.0:hasRoleID>
                  </rdf:Description>
            </j.0:satisfiesRole>
      </j.0:Port>                                           </j.0:hasExpressionArgument>
                                                            <j.0:hasExpressionArgument rdf:resource="#MODFLOW-96_node_OutputControl"/>
                                                            <j.0:hasExpressionArgument rdf:resource="#MODFLOW-96_node_DRN"/>
                                                            <j.0:hasExpressionArgument rdf:resource="#MODFLOW-96_node_BAS"/>
                                                            <j.0:hasExpressionArgument rdf:resource="#MODFLOW-96_node_BCF"/>
                                                            <j.0:hasExpressionArgument rdf:resource="#MODFLOW-96_node_PCG"/>
                                                            <j.0:hasExpressionArgument rdf:resource="#MODFLOW-96_node_MT3D"/>
                                                            <j.0:hasExpressionArgument rdf:resource="#MODFLOW-96_node_RECHARGE"/>
                                                            <j.0:hasExpressionArgument>
                                                            
      <j.0:Port rdf:ID="MODFLOW-96_node_WELL">
            <j.0:satisfiesRole>
                  <rdf:Description rdf:ID="MODFLOW-96_node_WELL_role">
                        <j.0:hasDimensionality rdf:datatype="http://www.w3.org/2001/XMLSchema#integer"
                        >0</j.0:hasDimensionality>
                        <j.0:hasRoleID rdf:datatype="http://www.w3.org/2001/XMLSchema#string"
                        >WELL</j.0:hasRoleID>
                  </rdf:Description>
            </j.0:satisfiesRole>
      </j.0:Port>                                           </j.0:hasExpressionArgument>
                                                            <j.0:hasExpressionArgument>
                                                            
      <j.0:Port rdf:ID="MODFLOW-96_node_HFB">
            <j.0:satisfiesRole>
                  <rdf:Description rdf:ID="MODFLOW-96_node_HFB_role">
                        <j.0:hasDimensionality rdf:datatype="http://www.w3.org/2001/XMLSchema#integer"
                        >0</j.0:hasDimensionality>
                        <j.0:hasRoleID rdf:datatype="http://www.w3.org/2001/XMLSchema#string"
                        >HFB</j.0:hasRoleID>
                  </rdf:Description>
            </j.0:satisfiesRole>
      </j.0:Port>                                           </j.0:hasExpressionArgument>
                                                      </j.0:XProduct>
                                                </j.0:createSetsOn>
                                                <j.0:createComponentSets
                                                 rdf:datatype=
                                                "http://www.w3.org/2001/XMLSchema#boolean"
                                                >true</j.0:createComponentSets>
                                          </j.0:PortSetRule>
                                    </j.0:hasPortSetCreationRule>
                                    <j.0:hasInputPort rdf:resource="#MODFLOW-96_node_NAM"/>
                                    <j.0:hasOutputPort>
                                          <j.0:Port rdf:ID="MODFLOW-96_node_DDOWN">
                                                <j.0:satisfiesRole>
                                                      <rdf:Description rdf:ID="MODFLOW-96_node_DDOWN_role">
                                                            <j.0:hasDimensionality
                                                             rdf:datatype=
                                                            "http://www.w3.org/2001/XMLSchema#integer"
                                                            >0</j.0:hasDimensionality>
                                                            <j.0:hasRoleID
                                                             rdf:datatype=
                                                            "http://www.w3.org/2001/XMLSchema#string"
                                                            >DDOWN</j.0:hasRoleID>
                                                      </rdf:Description>
                                                </j.0:satisfiesRole>
                                          </j.0:Port>
                                    </j.0:hasOutputPort>
                                    <j.0:hasOutputPort>
                                          <j.0:Port rdf:ID="MODFLOW-96_node_LIST">
                                                <j.0:satisfiesRole>
                                                      <rdf:Description rdf:ID="MODFLOW-96_node_LIST_role">
                                                            <j.0:hasDimensionality
                                                             rdf:datatype=
                                                            "http://www.w3.org/2001/XMLSchema#integer"
                                                            >0</j.0:hasDimensionality>
                                                            <j.0:hasRoleID
                                                             rdf:datatype=
                                                            "http://www.w3.org/2001/XMLSchema#string"
                                                            >LIST</j.0:hasRoleID>
                                                      </rdf:Description>
                                                </j.0:satisfiesRole>
                                          </j.0:Port>
                                    </j.0:hasOutputPort>
                                    <j.0:hasInputPort rdf:resource="#MODFLOW-96_node_SIP"/>
                                    <j.0:hasComponent>
                                          <rdf:Description rdf:ID="MODFLOW-96_node_comp">
                                                <j.0:isConcrete
                                                 rdf:datatype=
                                                "http://www.w3.org/2001/XMLSchema#boolean"
                                                >true</j.0:isConcrete>
                                                <j.0:hasComponentBinding rdf:resource="../components/library.owl#MODFLOW-96"/>
                                          </rdf:Description>
                                    </j.0:hasComponent>
                                    <j.0:hasInputPort rdf:resource="#MODFLOW-96_node_WELL"/>
                                    <j.0:hasOutputPort>
                                          <j.0:Port rdf:ID="MODFLOW-96_node_GLOBAL">
                                                <j.0:satisfiesRole>
                                                      <rdf:Description rdf:ID="MODFLOW-96_node_GLOBAL_role">
                                                            <j.0:hasDimensionality
                                                             rdf:datatype=
                                                            "http://www.w3.org/2001/XMLSchema#integer"
                                                            >0</j.0:hasDimensionality>
                                                            <j.0:hasRoleID
                                                             rdf:datatype=
                                                            "http://www.w3.org/2001/XMLSchema#string"
                                                            >GLOBAL</j.0:hasRoleID>
                                                      </rdf:Description>
                                                </j.0:satisfiesRole>
                                          </j.0:Port>
                                    </j.0:hasOutputPort>
                                    <j.0:hasOutputPort>
                                          <j.0:Port rdf:ID="MODFLOW-96_node_BUDGET">
                                                <j.0:satisfiesRole>
                                                      <rdf:Description rdf:ID="MODFLOW-96_node_BUDGET_role">
                                                            <j.0:hasDimensionality
                                                             rdf:datatype=
                                                            "http://www.w3.org/2001/XMLSchema#integer"
                                                            >0</j.0:hasDimensionality>
                                                            <j.0:hasRoleID
                                                             rdf:datatype=
                                                            "http://www.w3.org/2001/XMLSchema#string"
                                                            >BUDGET</j.0:hasRoleID>
                                                      </rdf:Description>
                                                </j.0:satisfiesRole>
                                          </j.0:Port>
                                    </j.0:hasOutputPort>
                                    <j.0:hasComponentSetCreationRule>
                                          <j.0:ComponentSetRule rdf:ID="MODFLOW-96_node_crule">
                                                <j.0:createSetsOn rdf:resource="#MODFLOW-96_node_comp"/>
                                                <j.0:createWorkflowSets
                                                 rdf:datatype=
                                                "http://www.w3.org/2001/XMLSchema#boolean"
                                                >true</j.0:createWorkflowSets>
                                          </j.0:ComponentSetRule>
                                    </j.0:hasComponentSetCreationRule>
                                    <j.0:hasInputPort rdf:resource="#MODFLOW-96_node_HFB"/>
                              </j.0:Node>
                        </j.0:hasDestinationNode>
                        <j.0:hasDestinationPort rdf:resource="#MODFLOW-96_node_HFB"/>
                  </j.0:InputLink>
            </j.0:hasLink>
            <j.0:hasInputRole>
                  <j.0:Role rdf:ID="WELL1_irole">
                        <j.0:hasDimensionality rdf:datatype="http://www.w3.org/2001/XMLSchema#integer"
                        >0</j.0:hasDimensionality>
                        <j.0:mapsToVariable>
                              <j.0:DataVariable rdf:ID="WELL1">
                                    <rdfs:comment rdf:datatype=
                                    "http://www.w3.org/2001/XMLSchema#string"
                                    >center:x=1849.1824096679688,y=30.00095272064209</rdfs:comment>
                              </j.0:DataVariable>
                        </j.0:mapsToVariable>
                        <j.0:hasRoleID rdf:datatype="http://www.w3.org/2001/XMLSchema#string"
                        >MODFLOW-2005_node_WELL</j.0:hasRoleID>
                  </j.0:Role>
            </j.0:hasInputRole>
            <j.0:hasLink>
                  <j.0:OutputLink rdf:ID="CompareDataResults_node_comparative_data_output">
                        <j.0:hasVariable>
                              <j.0:DataVariable rdf:ID="comparative_data">
                                    <rdfs:comment rdf:datatype=
                                    "http://www.w3.org/2001/XMLSchema#string"
                                    >center:x=890.999755859375,y=493.99987602233887</rdfs:comment>
                              </j.0:DataVariable>
                        </j.0:hasVariable>
                        <j.0:hasOriginNode>
                              <j.0:Node rdf:ID="CompareDataResults_node">
                                    <j.0:hasComponentSetCreationRule>
                                          <j.0:ComponentSetRule rdf:ID="CompareDataResults_node_crule">
                                                <j.0:createSetsOn>
                                                      <rdf:Description rdf:ID="CompareDataResults_node_comp">
                                                            <j.0:isConcrete
                                                             rdf:datatype=
                                                            "http://www.w3.org/2001/XMLSchema#boolean"
                                                            >true</j.0:isConcrete>
                                                            <j.0:hasComponentBinding rdf:resource="../components/library.owl#CompareDataResults"/>
                                                      </rdf:Description>
                                                </j.0:createSetsOn>
                                                <j.0:createWorkflowSets
                                                 rdf:datatype=
                                                "http://www.w3.org/2001/XMLSchema#boolean"
                                                >true</j.0:createWorkflowSets>
                                          </j.0:ComponentSetRule>
                                    </j.0:hasComponentSetCreationRule>
                                    <j.0:hasInputPort>
                                          <j.0:Port rdf:ID="CompareDataResults_node_extracted_data_1">
                                                <j.0:satisfiesRole>
                                                      <rdf:Description rdf:ID="CompareDataResults_node_extracted_data_1_role">
                                                            <j.0:hasDimensionality
                                                             rdf:datatype=
                                                            "http://www.w3.org/2001/XMLSchema#integer"
                                                            >0</j.0:hasDimensionality>
                                                            <j.0:hasRoleID
                                                             rdf:datatype=
                                                            "http://www.w3.org/2001/XMLSchema#string"
                                                            >extracted_data_1</j.0:hasRoleID>
                                                      </rdf:Description>
                                                </j.0:satisfiesRole>
                                          </j.0:Port>
                                    </j.0:hasInputPort>
                                    <j.0:hasInputPort>
                                          <j.0:Port rdf:ID="CompareDataResults_node_extracted_data_2">
                                                <j.0:satisfiesRole>
                                                      <rdf:Description rdf:ID="CompareDataResults_node_extracted_data_2_role">
                                                            <j.0:hasDimensionality
                                                             rdf:datatype=
                                                            "http://www.w3.org/2001/XMLSchema#integer"
                                                            >0</j.0:hasDimensionality>
                                                            <j.0:hasRoleID
                                                             rdf:datatype=
                                                            "http://www.w3.org/2001/XMLSchema#string"
                                                            >extracted_data_2</j.0:hasRoleID>
                                                      </rdf:Description>
                                                </j.0:satisfiesRole>
                                          </j.0:Port>
                                    </j.0:hasInputPort>
                                    <j.0:hasOutputPort>
                                          <j.0:Port rdf:ID="CompareDataResults_node_comparative_data">
                                                <j.0:satisfiesRole>
                                                      <rdf:Description rdf:ID="CompareDataResults_node_comparative_data_role">
                                                            <j.0:hasDimensionality
                                                             rdf:datatype=
                                                            "http://www.w3.org/2001/XMLSchema#integer"
                                                            >0</j.0:hasDimensionality>
                                                            <j.0:hasRoleID
                                                             rdf:datatype=
                                                            "http://www.w3.org/2001/XMLSchema#string"