<?xml version="1.0"?>
<rdf:RDF
    xmlns:rdf="http://www.w3.org/1999/02/22-rdf-syntax-ns#"
    xmlns:j.0="http://www.wings-workflows.org/ontology/workflow.owl#"
    xmlns:owl="http://www.w3.org/2002/07/owl#"
    xmlns:rdfs="http://www.w3.org/2000/01/rdf-schema#"
    xmlns:xsd="http://www.w3.org/2001/XMLSchema#"
      xml:base="http://localhost:8080/wings-portal/export/users/lucas/TACC/workflows/MODFLOW-2000-2005-Comparison.owl">
      <owl:Ontology rdf:about="">
            <owl:imports rdf:resource="http://www.wings-workflows.org/ontology/workflow.owl"/>
      </owl:Ontology>
      <j.0:WorkflowTemplate rdf:ID="MODFLOW-2000-2005-Comparison">
            <j.0:hasOutputRole>
                  <j.0:Role rdf:ID="DDOWN_orole">
                        <j.0:hasDimensionality rdf:datatype="http://www.w3.org/2001/XMLSchema#integer"
                        >0</j.0:hasDimensionality>
                        <j.0:mapsToVariable>
                              <j.0:DataVariable rdf:ID="DDOWN">
                                    <rdfs:comment rdf:datatype=
                                    "http://www.w3.org/2001/XMLSchema#string"
                                    >center:x=622,y=217</rdfs:comment>
                              </j.0:DataVariable>
                        </j.0:mapsToVariable>
                        <j.0:hasRoleID rdf:datatype="http://www.w3.org/2001/XMLSchema#string"
                        >DDOWN</j.0:hasRoleID>
                  </j.0:Role>
            </j.0:hasOutputRole>
            <j.0:hasInputRole>
                  <j.0:Role rdf:ID="DIS_irole">
                        <j.0:hasDimensionality rdf:datatype="http://www.w3.org/2001/XMLSchema#integer"
                        >0</j.0:hasDimensionality>
                        <j.0:mapsToVariable>
                              <j.0:DataVariable rdf:ID="DIS">
                                    <rdfs:comment rdf:datatype=
                                    "http://www.w3.org/2001/XMLSchema#string"
                                    >center:x=78,y=15</rdfs:comment>
                              </j.0:DataVariable>
                        </j.0:mapsToVariable>
                        <j.0:hasRoleID rdf:datatype="http://www.w3.org/2001/XMLSchema#string"
                        >MODFLOW-2000_node_DIS</j.0:hasRoleID>
                  </j.0:Role>
            </j.0:hasInputRole>
            <j.0:hasInputRole>
                  <j.0:Role rdf:ID="PCG1_irole">
                        <j.0:hasDimensionality rdf:datatype="http://www.w3.org/2001/XMLSchema#integer"
                        >0</j.0:hasDimensionality>
                        <j.0:mapsToVariable>
                              <j.0:DataVariable rdf:ID="PCG1">
                                    <rdfs:comment rdf:datatype=
                                    "http://www.w3.org/2001/XMLSchema#string"
                                    >center:x=1069,y=62</rdfs:comment>
                              </j.0:DataVariable>
                        </j.0:mapsToVariable>
                        <j.0:hasRoleID rdf:datatype="http://www.w3.org/2001/XMLSchema#string"
                        >MODFLOW-2005_node_PCG</j.0:hasRoleID>
                  </j.0:Role>
            </j.0:hasInputRole>
            <j.0:hasInputRole>
                  <j.0:Role rdf:ID="WELL_irole">
                        <j.0:hasDimensionality rdf:datatype="http://www.w3.org/2001/XMLSchema#integer"
                        >0</j.0:hasDimensionality>
                        <j.0:mapsToVariable>
                              <j.0:DataVariable rdf:ID="WELL">
                                    <rdfs:comment rdf:datatype=
                                    "http://www.w3.org/2001/XMLSchema#string"
                                    >center:x=410,y=118</rdfs:comment>
                              </j.0:DataVariable>
                        </j.0:mapsToVariable>
                        <j.0:hasRoleID rdf:datatype="http://www.w3.org/2001/XMLSchema#string"
                        >MODFLOW-2000_node_WELL</j.0:hasRoleID>
                  </j.0:Role>
            </j.0:hasInputRole>
            <j.0:hasLink>
                  <j.0:InOutLink rdf:ID="ExtractDataResults_node_extracted_data_to_CompareDataResults_node_extracted_data_1">
                        <j.0:hasDestinationNode>
                              <j.0:Node rdf:ID="CompareDataResults_node">
                                    <j.0:hasComponentSetCreationRule>
                                          <j.0:ComponentSetRule rdf:ID="CompareDataResults_node_crule">
                                                <j.0:createSetsOn>
                                                      <rdf:Description rdf:ID="CompareDataResults_node_comp">
                                                            <j.0:isConcrete
                                                             rdf:datatype=
                                                            "http://www.w3.org/2001/XMLSchema#boolean"
                                                            >true</j.0:isConcrete>
                                                            <j.0:hasComponentBinding rdf:resource="../components/library.owl#CompareDataResults"/>
                                                      </rdf:Description>
                                                </j.0:createSetsOn>
                                                <j.0:createWorkflowSets
                                                 rdf:datatype=
                                                "http://www.w3.org/2001/XMLSchema#boolean"
                                                >true</j.0:createWorkflowSets>
                                          </j.0:ComponentSetRule>
                                    </j.0:hasComponentSetCreationRule>
                                    <j.0:hasInputPort>
                                          <j.0:Port rdf:ID="CompareDataResults_node_extracted_data_1">
                                                <j.0:satisfiesRole>
                                                      <rdf:Description rdf:ID="CompareDataResults_node_extracted_data_1_role">
                                                            <j.0:hasDimensionality
                                                             rdf:datatype=
                                                            "http://www.w3.org/2001/XMLSchema#integer"
                                                            >0</j.0:hasDimensionality>
                                                            <j.0:hasRoleID
                                                             rdf:datatype=
                                                            "http://www.w3.org/2001/XMLSchema#string"
                                                            >extracted_data_1</j.0:hasRoleID>
                                                      </rdf:Description>
                                                </j.0:satisfiesRole>
                                          </j.0:Port>
                                    </j.0:hasInputPort>
                                    <j.0:hasInputPort>
                                          <j.0:Port rdf:ID="CompareDataResults_node_extracted_data_2">
                                                <j.0:satisfiesRole>
                                                      <rdf:Description rdf:ID="CompareDataResults_node_extracted_data_2_role">
                                                            <j.0:hasDimensionality
                                                             rdf:datatype=
                                                            "http://www.w3.org/2001/XMLSchema#integer"
                                                            >0</j.0:hasDimensionality>
                                                            <j.0:hasRoleID
                                                             rdf:datatype=
                                                            "http://www.w3.org/2001/XMLSchema#string"
                                                            >extracted_data_2</j.0:hasRoleID>
                                                      </rdf:Description>
                                                </j.0:satisfiesRole>
                                          </j.0:Port>
                                    </j.0:hasInputPort>
                                    <j.0:hasOutputPort>
                                          <j.0:Port rdf:ID="CompareDataResults_node_comparative_data">
                                                <j.0:satisfiesRole>
                                                      <rdf:Description rdf:ID="CompareDataResults_node_comparative_data_role">
                                                            <j.0:hasDimensionality
                                                             rdf:datatype=
                                                            "http://www.w3.org/2001/XMLSchema#integer"
                                                            >0</j.0:hasDimensionality>
                                                            <j.0:hasRoleID
                                                             rdf:datatype=
                                                            "http://www.w3.org/2001/XMLSchema#string"
                                                            >comparative_data</j.0:hasRoleID>
                                                      </rdf:Description>
                                                </j.0:satisfiesRole>
                                          </j.0:Port>
                                    </j.0:hasOutputPort>
                                    <j.0:hasPortSetCreationRule>
                                          <j.0:PortSetRule rdf:ID="CompareDataResults_node_prule">
                                                <j.0:createSetsOn>
                                                      <j.0:XProduct rdf:ID="_xprod-e6ca1254-7b93-4a26-bfeb-f3854724aab5">
                                                            <j.0:hasExpressionArgument rdf:resource="#CompareDataResults_node_extracted_data_1"/>
                                                            <j.0:hasExpressionArgument rdf:resource="#CompareDataResults_node_extracted_data_2"/>
                                                      </j.0:XProduct>
                                                </j.0:createSetsOn>
                                                <j.0:createComponentSets
                                                 rdf:datatype=
                                                "http://www.w3.org/2001/XMLSchema#boolean"
                                                >true</j.0:createComponentSets>
                                          </j.0:PortSetRule>
                                    </j.0:hasPortSetCreationRule>
                                    <rdfs:comment rdf:datatype=
                                    "http://www.w3.org/2001/XMLSchema#string"
                                    >center:x=520,y=440</rdfs:comment>
                                    <j.0:hasComponent rdf:resource="#CompareDataResults_node_comp"/>
                              </j.0:Node>
                        </j.0:hasDestinationNode>
                        <j.0:hasDestinationPort rdf:resource="#CompareDataResults_node_extracted_data_1"/>
                        <j.0:hasOriginNode>
                              <j.0:Node rdf:ID="ExtractDataResults_node">
                                    <j.0:hasComponent>
                                          <rdf:Description rdf:ID="ExtractDataResults_node_comp">
                                                <j.0:isConcrete
                                                 rdf:datatype=
                                                "http://www.w3.org/2001/XMLSchema#boolean"
                                                >true</j.0:isConcrete>
                                                <j.0:hasComponentBinding rdf:resource="../components/library.owl#ExtractDataResults"/>
                                          </rdf:Description>
                                    </j.0:hasComponent>
                                    <j.0:hasComponentSetCreationRule>
                                          <j.0:ComponentSetRule rdf:ID="ExtractDataResults_node_crule">
                                                <j.0:createSetsOn rdf:resource="#ExtractDataResults_node_comp"/>
                                                <j.0:createWorkflowSets
                                                 rdf:datatype=
                                                "http://www.w3.org/2001/XMLSchema#boolean"
                                                >true</j.0:createWorkflowSets>
                                          </j.0:ComponentSetRule>
                                    </j.0:hasComponentSetCreationRule>
                                    <j.0:hasInputPort>
                                          <j.0:Port rdf:ID="ExtractDataResults_node_simulation_results">
                                                <j.0:satisfiesRole>
                                                      <rdf:Description rdf:ID="ExtractDataResults_node_simulation_results_role">
                                                            <j.0:hasDimensionality
                                                             rdf:datatype=
                                                            "http://www.w3.org/2001/XMLSchema#integer"
                                                            >0</j.0:hasDimensionality>
                                                            <j.0:hasRoleID
                                                             rdf:datatype=
                                                            "http://www.w3.org/2001/XMLSchema#string"
                                                            >simulation_results</j.0:hasRoleID>
                                                      </rdf:Description>
                                                </j.0:satisfiesRole>
                                          </j.0:Port>
                                    </j.0:hasInputPort>
                                    <j.0:hasOutputPort>
                                          <j.0:Port rdf:ID="ExtractDataResults_node_extracted_data">
                                                <j.0:satisfiesRole>
                                                      <rdf:Description rdf:ID="ExtractDataResults_node_extracted_data_role">
                                                            <j.0:hasDimensionality
                                                             rdf:datatype=
                                                            "http://www.w3.org/2001/XMLSchema#integer"
                                                            >0</j.0:hasDimensionality>
                                                            <j.0:hasRoleID
                                                             rdf:datatype=
                                                            "http://www.w3.org/2001/XMLSchema#string"
                                                            >extracted_data</j.0:hasRoleID>
                                                      </rdf:Description>
                                                </j.0:satisfiesRole>
                                          </j.0:Port>
                                    </j.0:hasOutputPort>
                                    <j.0:hasPortSetCreationRule>
                                          <j.0:PortSetRule rdf:ID="ExtractDataResults_node_prule">
                                                <j.0:createSetsOn>
                                                      <j.0:XProduct rdf:ID="_xprod-4348318c-9fcf-4fb1-8682-b167a0370ef7">
                                                            <j.0:hasExpressionArgument rdf:resource="#ExtractDataResults_node_simulation_results"/>
                                                      </j.0:XProduct>
                                                </j.0:createSetsOn>
                                                <j.0:createComponentSets
                                                 rdf:datatype=
                                                "http://www.w3.org/2001/XMLSchema#boolean"
                                                >true</j.0:createComponentSets>
                                          </j.0:PortSetRule>
                                    </j.0:hasPortSetCreationRule>
                                    <rdfs:comment rdf:datatype=
                                    "http://www.w3.org/2001/XMLSchema#string"
                                    >center:x=296,y=302</rdfs:comment>
                              </j.0:Node>
                        </j.0:hasOriginNode>
                        <j.0:hasOriginPort rdf:resource="#ExtractDataResults_node_extracted_data"/>
                        <j.0:hasVariable>
                              <j.0:DataVariable rdf:ID="extracted_data">
                                    <rdfs:comment rdf:datatype=
                                    "http://www.w3.org/2001/XMLSchema#string"
                                    >center:x=292,y=369</rdfs:comment>
                              </j.0:DataVariable>
                        </j.0:hasVariable>
                  </j.0:InOutLink>
            </j.0:hasLink>
            <j.0:hasInputRole>
                  <j.0:Role rdf:ID="NAM1_irole">
                        <j.0:hasDimensionality rdf:datatype="http://www.w3.org/2001/XMLSchema#integer"
                        >0</j.0:hasDimensionality>
                        <j.0:mapsToVariable>
                              <j.0:DataVariable rdf:ID="NAM1">
                                    <rdfs:comment rdf:datatype=
                                    "http://www.w3.org/2001/XMLSchema#string"
                                    >center:x=855,y=17</rdfs:comment>
                              </j.0:DataVariable>
                        </j.0:mapsToVariable>
                        <j.0:hasRoleID rdf:datatype="http://www.w3.org/2001/XMLSchema#string"
                        >MODFLOW-2005_node_NAM</j.0:hasRoleID>
                  </j.0:Role>
            </j.0:hasInputRole>
            <j.0:hasLink>
                  <j.0:InputLink rdf:ID="MODFLOW-2000_node_RECHARGE_input">
                        <j.0:hasVariable>
                              <j.0:DataVariable rdf:ID="RECHARGE">
                                    <rdfs:comment rdf:datatype=
                                    "http://www.w3.org/2001/XMLSchema#string"
                                    >center:x=519,y=13.5</rdfs:comment>
                              </j.0:DataVariable>
                        </j.0:hasVariable>
                        <j.0:hasDestinationNode>
                              <j.0:Node rdf:ID="MODFLOW-2000_node">
                                    <j.0:hasInputPort>
                                          <j.0:Port rdf:ID="MODFLOW-2000_node_PCG">
                                                <j.0:satisfiesRole>
                                                      <rdf:Description rdf:ID="MODFLOW-2000_node_PCG_role">
                                                            <j.0:hasDimensionality
                                                             rdf:datatype=
                                                            "http://www.w3.org/2001/XMLSchema#integer"
                                                            >0</j.0:hasDimensionality>
                                                            <j.0:hasRoleID
                                                             rdf:datatype=
                                                            "http://www.w3.org/2001/XMLSchema#string"
                                                            >PCG</j.0:hasRoleID>
                                                      </rdf:Description>
                                                </j.0:satisfiesRole>
                                          </j.0:Port>
                                    </j.0:hasInputPort>
                                    <j.0:hasInputPort>
                                          <j.0:Port rdf:ID="MODFLOW-2000_node_BAS">
                                                <j.0:satisfiesRole>
                                                      <rdf:Description rdf:ID="MODFLOW-2000_node_BAS_role">
                                                            <j.0:hasDimensionality
                                                             rdf:datatype=
                                                            "http://www.w3.org/2001/XMLSchema#integer"
                                                            >0</j.0:hasDimensionality>
                                                            <j.0:hasRoleID
                                                             rdf:datatype=
                                                            "http://www.w3.org/2001/XMLSchema#string"
                                                            >BAS</j.0:hasRoleID>
                                                      </rdf:Description>
                                                </j.0:satisfiesRole>
                                          </j.0:Port>
                                    </j.0:hasInputPort>
                                    <j.0:hasComponentSetCreationRule>
                                          <j.0:ComponentSetRule rdf:ID="MODFLOW-2000_node_crule">
                                                <j.0:createSetsOn>
                                                      <rdf:Description rdf:ID="MODFLOW-2000_node_comp">
                                                            <j.0:isConcrete
                                                             rdf:datatype=
                                                            "http://www.w3.org/2001/XMLSchema#boolean"
                                                            >true</j.0:isConcrete>
                                                            <j.0:hasComponentBinding rdf:resource="../components/library.owl#MODFLOW-2000"/>
                                                      </rdf:Description>
                                                </j.0:createSetsOn>
                                                <j.0:createWorkflowSets
                                                 rdf:datatype=
                                                "http://www.w3.org/2001/XMLSchema#boolean"
                                                >true</j.0:createWorkflowSets>
                                          </j.0:ComponentSetRule>
                                    </j.0:hasComponentSetCreationRule>
                                    <j.0:hasOutputPort>
                                          <j.0:Port rdf:ID="MODFLOW-2000_node_HEADS">
                                                <j.0:satisfiesRole>
                                                      <rdf:Description rdf:ID="MODFLOW-2000_node_HEADS_role">
                                                            <j.0:hasDimensionality
                                                             rdf:datatype=
                                                            "http://www.w3.org/2001/XMLSchema#integer"
                                                            >0</j.0:hasDimensionality>
                                                            <j.0:hasRoleID
                                                             rdf:datatype=
                                                            "http://www.w3.org/2001/XMLSchema#string"
                                                            >HEADS</j.0:hasRoleID>
                                                      </rdf:Description>
                                                </j.0:satisfiesRole>
                                          </j.0:Port>
                                    </j.0:hasOutputPort>
                                    <j.0:hasInputPort>
                                          <j.0:Port rdf:ID="MODFLOW-2000_node_DIS">
                                                <j.0:satisfiesRole>
                                                      <rdf:Description rdf:ID="MODFLOW-2000_node_DIS_role">
                                                            <j.0:hasDimensionality
                                                             rdf:datatype=
                                                            "http://www.w3.org/2001/XMLSchema#integer"
                                                            >0</j.0:hasDimensionality>
                                                            <j.0:hasRoleID
                                                             rdf:datatype=
                                                            "http://www.w3.org/2001/XMLSchema#string"
                                                            >DIS</j.0:hasRoleID>
                                                      </rdf:Description>
                                                </j.0:satisfiesRole>
                                          </j.0:Port>
                                    </j.0:hasInputPort>
                                    <j.0:hasInputPort>
                                          <j.0:Port rdf:ID="MODFLOW-2000_node_OutputControl">
                                                <j.0:satisfiesRole>
                                                      <rdf:Description rdf:ID="MODFLOW-2000_node_OutputControl_role">
                                                            <j.0:hasDimensionality
                                                             rdf:datatype=
                                                            "http://www.w3.org/2001/XMLSchema#integer"
                                                            >0</j.0:hasDimensionality>
                                                            <j.0:hasRoleID
                                                             rdf:datatype=
                                                            "http://www.w3.org/2001/XMLSchema#string"
                                                            >OutputControl</j.0:hasRoleID>
                                                      </rdf:Description>
                                                </j.0:satisfiesRole>
                                          </j.0:Port>
                                    </j.0:hasInputPort>
                                    <j.0:hasInputPort>
                                          <j.0:Port rdf:ID="MODFLOW-2000_node_RECHARGE">
                                                <j.0:satisfiesRole>
                                                      <rdf:Description rdf:ID="MODFLOW-2000_node_RECHARGE_role">
                                                            <j.0:hasDimensionality
                                                             rdf:datatype=
                                                            "http://www.w3.org/2001/XMLSchema#integer"
                                                            >0</j.0:hasDimensionality>
                                                            <j.0:hasRoleID
                                                             rdf:datatype=
                                                            "http://www.w3.org/2001/XMLSchema#string"
                                                            >RECHARGE</j.0:hasRoleID>
                                                      </rdf:Description>
                                                </j.0:satisfiesRole>
                                          </j.0:Port>
                                    </j.0:hasInputPort>
                                    <j.0:hasInputPort>
                                          <j.0:Port rdf:ID="MODFLOW-2000_node_DRN">
                                                <j.0:satisfiesRole>
                                                      <rdf:Description rdf:ID="MODFLOW-2000_node_DRN_role">
                                                            <j.0:hasDimensionality
                                                             rdf:datatype=
                                                            "http://www.w3.org/2001/XMLSchema#integer"
                                                            >0</j.0:hasDimensionality>
                                                            <j.0:hasRoleID
                                                             rdf:datatype=
                                                            "http://www.w3.org/2001/XMLSchema#string"
                                                            >DRN</j.0:hasRoleID>
                                                      </rdf:Description>
                                                </j.0:satisfiesRole>
                                          </j.0:Port>
                                    </j.0:hasInputPort>
                                    <rdfs:comment rdf:datatype=
                                    "http://www.w3.org/2001/XMLSchema#string"
                                    >center:x=192,y=129</rdfs:comment>
                                    <j.0:hasComponent rdf:resource="#MODFLOW-2000_node_comp"/>
                                    <j.0:hasOutputPort>
                                          <j.0:Port rdf:ID="MODFLOW-2000_node_GLOBAL">
                                                <j.0:satisfiesRole>
                                                      <rdf:Description rdf:ID="MODFLOW-2000_node_GLOBAL_role">
                                                            <j.0:hasDimensionality