<?xml version="1.0"?>
<rdf:RDF
    xmlns:rdf="http://www.w3.org/1999/02/22-rdf-syntax-ns#"
    xmlns:j.0="http://www.wings-workflows.org/ontology/workflow.owl#"
    xmlns:owl="http://www.w3.org/2002/07/owl#"
    xmlns:rdfs="http://www.w3.org/2000/01/rdf-schema#"
    xmlns:j.1="http://localhost:8080/wings-portal/export/users/lucas/TACC/data/ontology.owl#"
    xmlns:xsd="http://www.w3.org/2001/XMLSchema#"
      xml:base="http://localhost:8080/wings-portal/export/users/lucas/TACC/workflows/MODFLOW-Comparison.owl">
      <owl:Ontology rdf:about="">
            <owl:imports rdf:resource="http://www.wings-workflows.org/ontology/workflow.owl"/>
      </owl:Ontology>
      <j.0:WorkflowTemplate rdf:ID="MODFLOW-Comparison">
            <j.0:hasNode>
                  <j.0:Node rdf:ID="MODFLOW_node1">
                        <j.0:hasOutputPort>
                              <j.0:Port rdf:ID="MODFLOW_node1_GLOBAL">
                                    <j.0:satisfiesRole>
                                          <rdf:Description rdf:ID="MODFLOW_node1_GLOBAL_role">
                                                <j.0:hasDimensionality
                                                 rdf:datatype=
                                                "http://www.w3.org/2001/XMLSchema#integer"
                                                >0</j.0:hasDimensionality>
                                                <j.0:hasRoleID
                                                 rdf:datatype=
                                                "http://www.w3.org/2001/XMLSchema#string"
                                                >GLOBAL</j.0:hasRoleID>
                                          </rdf:Description>
                                    </j.0:satisfiesRole>
                              </j.0:Port>
                        </j.0:hasOutputPort>
                        <j.0:hasInputPort>
                              <j.0:Port rdf:ID="MODFLOW_node1_HFB">
                                    <j.0:satisfiesRole>
                                          <rdf:Description rdf:ID="MODFLOW_node1_HFB_role">
                                                <j.0:hasDimensionality
                                                 rdf:datatype=
                                                "http://www.w3.org/2001/XMLSchema#integer"
                                                >0</j.0:hasDimensionality>
                                                <j.0:hasRoleID
                                                 rdf:datatype=
                                                "http://www.w3.org/2001/XMLSchema#string"
                                                >HFB</j.0:hasRoleID>
                                          </rdf:Description>
                                    </j.0:satisfiesRole>
                              </j.0:Port>
                        </j.0:hasInputPort>
                        <j.0:hasPortSetCreationRule>
                              <j.0:PortSetRule rdf:ID="MODFLOW_node1_prule">
                                    <j.0:createSetsOn>
                                          <j.0:XProduct rdf:ID="_xprod-b13ceb08-7925-4e25-a983-4784598ed83c">
                                                <j.0:hasExpressionArgument>
                                                      <j.0:Port rdf:ID="MODFLOW_node1_NAM">
                                                            <j.0:satisfiesRole>
                                                            
      <rdf:Description rdf:ID="MODFLOW_node1_NAM_role">
            <j.0:hasDimensionality rdf:datatype="http://www.w3.org/2001/XMLSchema#integer"
            >0</j.0:hasDimensionality>
            <j.0:hasRoleID rdf:datatype="http://www.w3.org/2001/XMLSchema#string"
            >NAM</j.0:hasRoleID>
      </rdf:Description>                                    </j.0:satisfiesRole>
                                                      </j.0:Port>
                                                </j.0:hasExpressionArgument>
                                                <j.0:hasExpressionArgument>
                                                      <j.0:Port rdf:ID="MODFLOW_node1_DRN">
                                                            <j.0:satisfiesRole>
                                                            
      <rdf:Description rdf:ID="MODFLOW_node1_DRN_role">
            <j.0:hasDimensionality rdf:datatype="http://www.w3.org/2001/XMLSchema#integer"
            >0</j.0:hasDimensionality>
            <j.0:hasRoleID rdf:datatype="http://www.w3.org/2001/XMLSchema#string"
            >DRN</j.0:hasRoleID>
      </rdf:Description>                                    </j.0:satisfiesRole>
                                                      </j.0:Port>
                                                </j.0:hasExpressionArgument>
                                                <j.0:hasExpressionArgument>
                                                      <j.0:Port rdf:ID="MODFLOW_node1_BCF">
                                                            <j.0:satisfiesRole>
                                                            
      <rdf:Description rdf:ID="MODFLOW_node1_BCF_role">
            <j.0:hasDimensionality rdf:datatype="http://www.w3.org/2001/XMLSchema#integer"
            >0</j.0:hasDimensionality>
            <j.0:hasRoleID rdf:datatype="http://www.w3.org/2001/XMLSchema#string"
            >BCF</j.0:hasRoleID>
      </rdf:Description>                                    </j.0:satisfiesRole>
                                                      </j.0:Port>
                                                </j.0:hasExpressionArgument>
                                                <j.0:hasExpressionArgument>
                                                      <j.0:Port rdf:ID="MODFLOW_node1_RECHARGE">
                                                            <j.0:satisfiesRole>
                                                            
      <rdf:Description rdf:ID="MODFLOW_node1_RECHARGE_role">
            <j.0:hasDimensionality rdf:datatype="http://www.w3.org/2001/XMLSchema#integer"
            >0</j.0:hasDimensionality>
            <j.0:hasRoleID rdf:datatype="http://www.w3.org/2001/XMLSchema#string"
            >RECHARGE</j.0:hasRoleID>
      </rdf:Description>                                    </j.0:satisfiesRole>
                                                      </j.0:Port>
                                                </j.0:hasExpressionArgument>
                                                <j.0:hasExpressionArgument>
                                                      <j.0:Port rdf:ID="MODFLOW_node1_DIS">
                                                            <j.0:satisfiesRole>
                                                            
      <rdf:Description rdf:ID="MODFLOW_node1_DIS_role">
            <j.0:hasDimensionality rdf:datatype="http://www.w3.org/2001/XMLSchema#integer"
            >0</j.0:hasDimensionality>
            <j.0:hasRoleID rdf:datatype="http://www.w3.org/2001/XMLSchema#string"
            >DIS</j.0:hasRoleID>
      </rdf:Description>                                    </j.0:satisfiesRole>
                                                      </j.0:Port>
                                                </j.0:hasExpressionArgument>
                                                <j.0:hasExpressionArgument>
                                                      <j.0:Port rdf:ID="MODFLOW_node1_MT3D">
                                                            <j.0:satisfiesRole>
                                                            
      <rdf:Description rdf:ID="MODFLOW_node1_MT3D_role">
            <j.0:hasDimensionality rdf:datatype="http://www.w3.org/2001/XMLSchema#integer"
            >0</j.0:hasDimensionality>
            <j.0:hasRoleID rdf:datatype="http://www.w3.org/2001/XMLSchema#string"
            >MT3D</j.0:hasRoleID>
      </rdf:Description>                                    </j.0:satisfiesRole>
                                                      </j.0:Port>
                                                </j.0:hasExpressionArgument>
                                                <j.0:hasExpressionArgument>
                                                      <j.0:Port rdf:ID="MODFLOW_node1_WELL">
                                                            <j.0:satisfiesRole>
                                                            
      <rdf:Description rdf:ID="MODFLOW_node1_WELL_role">
            <j.0:hasDimensionality rdf:datatype="http://www.w3.org/2001/XMLSchema#integer"
            >0</j.0:hasDimensionality>
            <j.0:hasRoleID rdf:datatype="http://www.w3.org/2001/XMLSchema#string"
            >WELL</j.0:hasRoleID>
      </rdf:Description>                                    </j.0:satisfiesRole>
                                                      </j.0:Port>
                                                </j.0:hasExpressionArgument>
                                                <j.0:hasExpressionArgument>
                                                      <j.0:Port rdf:ID="MODFLOW_node1_PCG">
                                                            <j.0:satisfiesRole>
                                                            
      <rdf:Description rdf:ID="MODFLOW_node1_PCG_role">
            <j.0:hasDimensionality rdf:datatype="http://www.w3.org/2001/XMLSchema#integer"
            >0</j.0:hasDimensionality>
            <j.0:hasRoleID rdf:datatype="http://www.w3.org/2001/XMLSchema#string"
            >PCG</j.0:hasRoleID>
      </rdf:Description>                                    </j.0:satisfiesRole>
                                                      </j.0:Port>
                                                </j.0:hasExpressionArgument>
                                                <j.0:hasExpressionArgument>
                                                      <j.0:Port rdf:ID="MODFLOW_node1_BAS">
                                                            <j.0:satisfiesRole>
                                                            
      <rdf:Description rdf:ID="MODFLOW_node1_BAS_role">
            <j.0:hasDimensionality rdf:datatype="http://www.w3.org/2001/XMLSchema#integer"
            >0</j.0:hasDimensionality>
            <j.0:hasRoleID rdf:datatype="http://www.w3.org/2001/XMLSchema#string"
            >BAS</j.0:hasRoleID>
      </rdf:Description>                                    </j.0:satisfiesRole>
                                                      </j.0:Port>
                                                </j.0:hasExpressionArgument>
                                                <j.0:hasExpressionArgument>
                                                      <j.0:Port rdf:ID="MODFLOW_node1_OutputControl">
                                                            <j.0:satisfiesRole>
                                                            
      <rdf:Description rdf:ID="MODFLOW_node1_OutputControl_role">
            <j.0:hasDimensionality rdf:datatype="http://www.w3.org/2001/XMLSchema#integer"
            >0</j.0:hasDimensionality>
            <j.0:hasRoleID rdf:datatype="http://www.w3.org/2001/XMLSchema#string"
            >OutputControl</j.0:hasRoleID>
      </rdf:Description>                                    </j.0:satisfiesRole>
                                                      </j.0:Port>
                                                </j.0:hasExpressionArgument>
                                                <j.0:hasExpressionArgument rdf:resource="#MODFLOW_node1_HFB"/>
                                          </j.0:XProduct>
                                    </j.0:createSetsOn>
                                    <j.0:createComponentSets rdf:datatype=
                                    "http://www.w3.org/2001/XMLSchema#boolean"
                                    >true</j.0:createComponentSets>
                              </j.0:PortSetRule>
                        </j.0:hasPortSetCreationRule>
                        <j.0:hasInputPort rdf:resource="#MODFLOW_node1_MT3D"/>
                        <j.0:hasComponentSetCreationRule>
                              <j.0:ComponentSetRule rdf:ID="MODFLOW_node1_crule">
                                    <j.0:createSetsOn>
                                          <rdf:Description rdf:ID="MODFLOW_node1_comp">
                                                <j.0:hasComponentBinding rdf:resource="../components/library.owl#MODFLOW"/>
                                          </rdf:Description>
                                    </j.0:createSetsOn>
                                    <j.0:createWorkflowSets rdf:datatype=
                                    "http://www.w3.org/2001/XMLSchema#boolean"
                                    >true</j.0:createWorkflowSets>
                              </j.0:ComponentSetRule>
                        </j.0:hasComponentSetCreationRule>
                        <j.0:hasInputPort rdf:resource="#MODFLOW_node1_NAM"/>
                        <j.0:hasOutputPort>
                              <j.0:Port rdf:ID="MODFLOW_node1_HEADS">
                                    <j.0:satisfiesRole>
                                          <rdf:Description rdf:ID="MODFLOW_node1_HEADS_role">
                                                <j.0:hasDimensionality
                                                 rdf:datatype=
                                                "http://www.w3.org/2001/XMLSchema#integer"
                                                >0</j.0:hasDimensionality>
                                                <j.0:hasRoleID
                                                 rdf:datatype=
                                                "http://www.w3.org/2001/XMLSchema#string"
                                                >HEADS</j.0:hasRoleID>
                                          </rdf:Description>
                                    </j.0:satisfiesRole>
                              </j.0:Port>
                        </j.0:hasOutputPort>
                        <j.0:hasOutputPort>
                              <j.0:Port rdf:ID="MODFLOW_node1_BUDGET">
                                    <j.0:satisfiesRole>
                                          <rdf:Description rdf:ID="MODFLOW_node1_BUDGET_role">
                                                <j.0:hasDimensionality
                                                 rdf:datatype=
                                                "http://www.w3.org/2001/XMLSchema#integer"
                                                >0</j.0:hasDimensionality>
                                                <j.0:hasRoleID
                                                 rdf:datatype=
                                                "http://www.w3.org/2001/XMLSchema#string"
                                                >BUDGET</j.0:hasRoleID>
                                          </rdf:Description>
                                    </j.0:satisfiesRole>
                              </j.0:Port>
                        </j.0:hasOutputPort>
                        <rdfs:comment rdf:datatype="http://www.w3.org/2001/XMLSchema#string"
                        >center:x=799.210205078125,y=154.08197021484375</rdfs:comment>
                        <j.0:hasComponent rdf:resource="#MODFLOW_node1_comp"/>
                        <j.0:hasOutputPort>
                              <j.0:Port rdf:ID="MODFLOW_node1_DDOWN">
                                    <j.0:satisfiesRole>
                                          <rdf:Description rdf:ID="MODFLOW_node1_DDOWN_role">
                                                <j.0:hasDimensionality
                                                 rdf:datatype=
                                                "http://www.w3.org/2001/XMLSchema#integer"
                                                >0</j.0:hasDimensionality>
                                                <j.0:hasRoleID
                                                 rdf:datatype=
                                                "http://www.w3.org/2001/XMLSchema#string"
                                                >DDOWN</j.0:hasRoleID>
                                          </rdf:Description>
                                    </j.0:satisfiesRole>
                              </j.0:Port>
                        </j.0:hasOutputPort>
                        <j.0:hasInputPort rdf:resource="#MODFLOW_node1_DIS"/>
                        <j.0:hasInputPort rdf:resource="#MODFLOW_node1_WELL"/>
                        <j.0:hasOutputPort>
                              <j.0:Port rdf:ID="MODFLOW_node1_LIST">
                                    <j.0:satisfiesRole>
                                          <rdf:Description rdf:ID="MODFLOW_node1_LIST_role">
                                                <j.0:hasDimensionality
                                                 rdf:datatype=
                                                "http://www.w3.org/2001/XMLSchema#integer"
                                                >0</j.0:hasDimensionality>
                                                <j.0:hasRoleID
                                                 rdf:datatype=
                                                "http://www.w3.org/2001/XMLSchema#string"
                                                >LIST</j.0:hasRoleID>
                                          </rdf:Description>
                                    </j.0:satisfiesRole>
                              </j.0:Port>
                        </j.0:hasOutputPort>
                        <j.0:hasInputPort rdf:resource="#MODFLOW_node1_RECHARGE"/>
                        <j.0:hasInputPort rdf:resource="#MODFLOW_node1_BAS"/>
                        <j.0:hasInputPort rdf:resource="#MODFLOW_node1_OutputControl"/>
                        <j.0:hasInputPort rdf:resource="#MODFLOW_node1_DRN"/>
                        <j.0:hasInputPort rdf:resource="#MODFLOW_node1_BCF"/>
                        <j.0:hasInputPort rdf:resource="#MODFLOW_node1_PCG"/>
                  </j.0:Node>
            </j.0:hasNode>
            <j.0:hasInputRole>
                  <j.0:Role rdf:ID="NAM1_irole">
                        <j.0:hasDimensionality rdf:datatype="http://www.w3.org/2001/XMLSchema#integer"
                        >0</j.0:hasDimensionality>
                        <j.0:mapsToVariable>
                              <j.1:NAM rdf:ID="NAM1">
                                    <rdfs:comment rdf:datatype=
                                    "http://www.w3.org/2001/XMLSchema#string"
                                    >center:x=825.1298217773438,y=18.600253105163574</rdfs:comment>
                                    <rdf:type rdf:resource="http://www.wings-workflows.org/ontology/workflow.owl#DataVariable"/>
                              </j.1:NAM>
                        </j.0:mapsToVariable>
                        <j.0:hasRoleID rdf:datatype="http://www.w3.org/2001/XMLSchema#string"
                        >MODFLOW_node1_NAM</j.0:hasRoleID>
                  </j.0:Role>
            </j.0:hasInputRole>
            <j.0:hasOutputRole>
                  <j.0:Role rdf:ID="BUDGET_orole">
                        <j.0:hasDimensionality rdf:datatype="http://www.w3.org/2001/XMLSchema#integer"
                        >0</j.0:hasDimensionality>
                        <j.0:mapsToVariable>
                              <j.1:BUDGET rdf:ID="BUDGET">
                                    <rdfs:comment rdf:datatype=
                                    "http://www.w3.org/2001/XMLSchema#string"
                                    >center:x=108.70220947265625,y=242.17633056640625</rdfs:comment>
                                    <rdf:type rdf:resource="http://www.wings-workflows.org/ontology/workflow.owl#DataVariable"/>
                              </j.1:BUDGET>
                        </j.0:mapsToVariable>
                        <j.0:hasRoleID rdf:datatype="http://www.w3.org/2001/XMLSchema#string"
                        >BUDGET</j.0:hasRoleID>
                  </j.0:Role>
            </j.0:hasOutputRole>
            <j.0:hasNode>
                  <j.0:Node rdf:ID="ExtractDataResults_node">
                        <j.0:hasComponent>
                              <rdf:Description rdf:ID="ExtractDataResults_node_comp">
                                    <j.0:isConcrete rdf:datatype=
                                    "http://www.w3.org/2001/XMLSchema#boolean"
                                    >true</j.0:isConcrete>
                                    <j.0:hasComponentBinding rdf:resource="../components/library.owl#ExtractDataResults"/>
                              </rdf:Description>
                        </j.0:hasComponent>
                        <j.0:hasComponentSetCreationRule>
                              <j.0:ComponentSetRule rdf:ID="ExtractDataResults_node_crule">
                                    <j.0:createSetsOn rdf:resource="#ExtractDataResults_node_comp"/>
                                    <j.0:createWorkflowSets rdf:datatype=
                                    "http://www.w3.org/2001/XMLSchema#boolean"
                                    >true</j.0:createWorkflowSets>
                              </j.0:ComponentSetRule>
                        </j.0:hasComponentSetCreationRule>
                        <j.0:hasInputPort>
                              <j.0:Port rdf:ID="ExtractDataResults_node_simulation_results">
                                    <j.0:satisfiesRole>
                                          <rdf:Description rdf:ID="ExtractDataResults_node_simulation_results_role">
                                                <j.0:hasDimensionality
                                                 rdf:datatype=
                                                "http://www.w3.org/2001/XMLSchema#integer"
                                                >0</j.0:hasDimensionality>
                                                <j.0:hasRoleID
                                                 rdf:datatype=
                                                "http://www.w3.org/2001/XMLSchema#string"
                                                >simulation_results</j.0:hasRoleID>
                                          </rdf:Description>
                                    </j.0:satisfiesRole>
                              </j.0:Port>
                        </j.0:hasInputPort>
                        <j.0:hasOutputPort>
                              <j.0:Port rdf:ID="ExtractDataResults_node_extracted_data">
                                    <j.0:satisfiesRole>
                                          <rdf:Description rdf:ID="ExtractDataResults_node_extracted_data_role">
                                                <j.0:hasDimensionality
                                                 rdf:datatype=
                                                "http://www.w3.org/2001/XMLSchema#integer"
                                                >0</j.0:hasDimensionality>
                                                <j.0:hasRoleID
                                                 rdf:datatype=
                                                "http://www.w3.org/2001/XMLSchema#string"
                                                >extracted_data</j.0:hasRoleID>
                                          </rdf:Description>
                                    </j.0:satisfiesRole>
                              </j.0:Port>
                        </j.0:hasOutputPort>
                        <j.0:hasPortSetCreationRule>
                              <j.0:PortSetRule rdf:ID="ExtractDataResults_node_prule">
                                    <j.0:createSetsOn>
                                          <j.0:XProduct rdf:ID="_xprod-8e669540-b67e-4db4-b1b9-58c32524aa42">
                                                <j.0:hasExpressionArgument rdf:resource="#ExtractDataResults_node_simulation_results"/>
                                          </j.0:XProduct>
                                    </j.0:createSetsOn>
                                    <j.0:createComponentSets rdf:datatype=
                                    "http://www.w3.org/2001/XMLSchema#boolean"
                                    >true</j.0:createComponentSets>
                              </j.0:PortSetRule>
                        </j.0:hasPortSetCreationRule>
                        <rdfs:comment rdf:datatype="http://www.w3.org/2001/XMLSchema#string"
                        >center:x=416.16546630859375,y=329.7643737792969</rdfs:comment>
                  </j.0:Node>
            </j.0:hasNode>
            <j.0:hasOutputRole>
                  <j.0:Role rdf:ID="DDOWN_orole">
                        <j.0:hasDimensionality rdf:datatype="http://www.w3.org/2001/XMLSchema#integer"
                        >0</j.0:hasDimensionality>
                        <j.0:mapsToVariable>
                              <j.1:DDOWN rdf:ID="DDOWN">
                                    <rdfs:comment rdf:datatype=
                                    "http://www.w3.org/2001/XMLSchema#string"
                                    >center:x=190.40447998046875,y=243.31180381774902</rdfs:comment>
                                    <rdf:type rdf:resource="http://www.wings-workflows.org/ontology/workflow.owl#DataVariable"/>
                              </j.1:DDOWN>
                        </j.0:mapsToVariable>
                        <j.0:hasRoleID rdf:datatype="http://www.w3.org/2001/XMLSchema#string"
                        >DDOWN</j.0:hasRoleID>
                  </j.0:Role>
            </j.0:hasOutputRole>
            <j.0:hasLink>
                  <j.0:InputLink rdf:ID="MODFLOW_node_BAS_input">
                        <j.0:hasVariable>
                              <j.1:BAS rdf:ID="BAS">
                                    <rdfs:comment rdf:datatype=
                                    "http://www.w3.org/2001/XMLSchema#string"
                                    >center:x=39.386688232421875,y=92.82928466796875</rdfs:comment>
                                    <rdf:type rdf:resource="http://www.wings-workflows.org/ontology/workflow.owl#DataVariable"/>
                              </j.1:BAS>
                        </j.0:hasVariable>
                        <j.0:hasDestinationNode>
                              <j.0:Node rdf:ID="MODFLOW_node">
                                    <j.0:hasOutputPort>
                                          <j.0:Port rdf:ID="MODFLOW_node_GLOBAL">
                                                <j.0:satisfiesRole>
                                                      <rdf:Description rdf:ID="MODFLOW_node_GLOBAL_role">
                                                            <j.0:hasDimensionality
                                                             rdf:datatype=
                                                            "http://www.w3.org/2001/XMLSchema#integer"
                                                            >0</j.0:hasDimensionality>
                                                            <j.0:hasRoleID
                                                             rdf:datatype=
                                                            "http://www.w3.org/2001/XMLSchema#string"
                                                            >GLOBAL</j.0:hasRoleID>
                                                      </rdf:Description>
                                                </j.0:satisfiesRole>
                                          </j.0:Port>
                                    </j.0:hasOutputPort>
                                    <j.0:hasOutputPort>
                                          <j.0:Port rdf:ID="MODFLOW_node_HEADS">
                                                <j.0:satisfiesRole>
                                                      <rdf:Description rdf:ID="MODFLOW_node_HEADS_role">
                                                            <j.0:hasDimensionality
                                                             rdf:datatype=
                                                            "http://www.w3.org/2001/XMLSchema#integer"
                                                            >0</j.0:hasDimensionality>
                                                            <j.0:hasRoleID
                                                             rdf:datatype=
                                                            "http://www.w3.org/2001/XMLSchema#string"
                                                            >HEADS</j.0:hasRoleID>
                                                      </rdf:Description>
                                                </j.0:satisfiesRole>
                                          </j.0:Port>
                                    </j.0:hasOutputPort>
                                    <j.0:hasInputPort>
                                          <j.0:Port rdf:ID="MODFLOW_node_NAM">
                                                <j.0:satisfiesRole>
                                                      <rdf:Description rdf:ID="MODFLOW_node_NAM_role">
                                                            <j.0:hasDimensionality
                                                             rdf:datatype=
                                                            "http://www.w3.org/2001/XMLSchema#integer"
                                                            >0</j.0:hasDimensionality>
                                                            <j.0:hasRoleID
                                                             rdf:datatype=