<?xml version="1.0"?>
<rdf:RDF
    xmlns:rdf="http://www.w3.org/1999/02/22-rdf-syntax-ns#"
    xmlns:j.0="http://www.wings-workflows.org/ontology/workflow.owl#"
    xmlns:owl="http://www.w3.org/2002/07/owl#"
    xmlns:rdfs="http://www.w3.org/2000/01/rdf-schema#"
    xmlns:xsd="http://www.w3.org/2001/XMLSchema#"
      xml:base="http://localhost:8080/wings-portal/export/users/lucas/TACC/workflows/MODFLOW-96-2000-Comparison.owl">
      <owl:Ontology rdf:about="">
            <owl:imports rdf:resource="http://www.wings-workflows.org/ontology/workflow.owl"/>
      </owl:Ontology>
      <j.0:WorkflowTemplate rdf:ID="MODFLOW-96-2000-Comparison">
            <j.0:hasInputRole>
                  <j.0:Role rdf:ID="SIP1_irole">
                        <j.0:hasDimensionality rdf:datatype="http://www.w3.org/2001/XMLSchema#integer"
                        >0</j.0:hasDimensionality>
                        <j.0:mapsToVariable>
                              <j.0:DataVariable rdf:ID="SIP1">
                                    <rdfs:comment rdf:datatype=
                                    "http://www.w3.org/2001/XMLSchema#string"
                                    >center:x=433.6817382812501,y=54.991435050964355</rdfs:comment>
                              </j.0:DataVariable>
                        </j.0:mapsToVariable>
                        <j.0:hasRoleID rdf:datatype="http://www.w3.org/2001/XMLSchema#string"
                        >MODFLOW-96_node_SIP</j.0:hasRoleID>
                  </j.0:Role>
            </j.0:hasInputRole>
            <j.0:hasLink>
                  <j.0:InputLink rdf:ID="MODFLOW-96_node_HFB_input">
                        <j.0:hasVariable>
                              <j.0:DataVariable rdf:ID="HFB1">
                                    <rdfs:comment rdf:datatype=
                                    "http://www.w3.org/2001/XMLSchema#string"
                                    >center:x=99.09715538024903,y=68.99143505096436</rdfs:comment>
                              </j.0:DataVariable>
                        </j.0:hasVariable>
                        <j.0:hasDestinationNode>
                              <j.0:Node rdf:ID="MODFLOW-96_node">
                                    <j.0:hasInputPort>
                                          <j.0:Port rdf:ID="MODFLOW-96_node_SIP">
                                                <j.0:satisfiesRole>
                                                      <rdf:Description rdf:ID="MODFLOW-96_node_SIP_role">
                                                            <j.0:hasDimensionality
                                                             rdf:datatype=
                                                            "http://www.w3.org/2001/XMLSchema#integer"
                                                            >0</j.0:hasDimensionality>
                                                            <j.0:hasRoleID
                                                             rdf:datatype=
                                                            "http://www.w3.org/2001/XMLSchema#string"
                                                            >SIP</j.0:hasRoleID>
                                                      </rdf:Description>
                                                </j.0:satisfiesRole>
                                          </j.0:Port>
                                    </j.0:hasInputPort>
                                    <j.0:hasInputPort>
                                          <j.0:Port rdf:ID="MODFLOW-96_node_PCG">
                                                <j.0:satisfiesRole>
                                                      <rdf:Description rdf:ID="MODFLOW-96_node_PCG_role">
                                                            <j.0:hasDimensionality
                                                             rdf:datatype=
                                                            "http://www.w3.org/2001/XMLSchema#integer"
                                                            >0</j.0:hasDimensionality>
                                                            <j.0:hasRoleID
                                                             rdf:datatype=
                                                            "http://www.w3.org/2001/XMLSchema#string"
                                                            >PCG</j.0:hasRoleID>
                                                      </rdf:Description>
                                                </j.0:satisfiesRole>
                                          </j.0:Port>
                                    </j.0:hasInputPort>
                                    <j.0:hasInputPort>
                                          <j.0:Port rdf:ID="MODFLOW-96_node_HFB">
                                                <j.0:satisfiesRole>
                                                      <rdf:Description rdf:ID="MODFLOW-96_node_HFB_role">
                                                            <j.0:hasDimensionality
                                                             rdf:datatype=
                                                            "http://www.w3.org/2001/XMLSchema#integer"
                                                            >0</j.0:hasDimensionality>
                                                            <j.0:hasRoleID
                                                             rdf:datatype=
                                                            "http://www.w3.org/2001/XMLSchema#string"
                                                            >HFB</j.0:hasRoleID>
                                                      </rdf:Description>
                                                </j.0:satisfiesRole>
                                          </j.0:Port>
                                    </j.0:hasInputPort>
                                    <j.0:hasInputPort>
                                          <j.0:Port rdf:ID="MODFLOW-96_node_WELL">
                                                <j.0:satisfiesRole>
                                                      <rdf:Description rdf:ID="MODFLOW-96_node_WELL_role">
                                                            <j.0:hasDimensionality
                                                             rdf:datatype=
                                                            "http://www.w3.org/2001/XMLSchema#integer"
                                                            >0</j.0:hasDimensionality>
                                                            <j.0:hasRoleID
                                                             rdf:datatype=
                                                            "http://www.w3.org/2001/XMLSchema#string"
                                                            >WELL</j.0:hasRoleID>
                                                      </rdf:Description>
                                                </j.0:satisfiesRole>
                                          </j.0:Port>
                                    </j.0:hasInputPort>
                                    <j.0:hasOutputPort>
                                          <j.0:Port rdf:ID="MODFLOW-96_node_HEADS">
                                                <j.0:satisfiesRole>
                                                      <rdf:Description rdf:ID="MODFLOW-96_node_HEADS_role">
                                                            <j.0:hasDimensionality
                                                             rdf:datatype=
                                                            "http://www.w3.org/2001/XMLSchema#integer"
                                                            >0</j.0:hasDimensionality>
                                                            <j.0:hasRoleID
                                                             rdf:datatype=
                                                            "http://www.w3.org/2001/XMLSchema#string"
                                                            >HEADS</j.0:hasRoleID>
                                                      </rdf:Description>
                                                </j.0:satisfiesRole>
                                          </j.0:Port>
                                    </j.0:hasOutputPort>
                                    <j.0:hasInputPort>
                                          <j.0:Port rdf:ID="MODFLOW-96_node_MT3D">
                                                <j.0:satisfiesRole>
                                                      <rdf:Description rdf:ID="MODFLOW-96_node_MT3D_role">
                                                            <j.0:hasDimensionality
                                                             rdf:datatype=
                                                            "http://www.w3.org/2001/XMLSchema#integer"
                                                            >0</j.0:hasDimensionality>
                                                            <j.0:hasRoleID
                                                             rdf:datatype=
                                                            "http://www.w3.org/2001/XMLSchema#string"
                                                            >MT3D</j.0:hasRoleID>
                                                      </rdf:Description>
                                                </j.0:satisfiesRole>
                                          </j.0:Port>
                                    </j.0:hasInputPort>
                                    <j.0:hasInputPort>
                                          <j.0:Port rdf:ID="MODFLOW-96_node_OutputControl">
                                                <j.0:satisfiesRole>
                                                      <rdf:Description rdf:ID="MODFLOW-96_node_OutputControl_role">
                                                            <j.0:hasDimensionality
                                                             rdf:datatype=
                                                            "http://www.w3.org/2001/XMLSchema#integer"
                                                            >0</j.0:hasDimensionality>
                                                            <j.0:hasRoleID
                                                             rdf:datatype=
                                                            "http://www.w3.org/2001/XMLSchema#string"
                                                            >OutputControl</j.0:hasRoleID>
                                                      </rdf:Description>
                                                </j.0:satisfiesRole>
                                          </j.0:Port>
                                    </j.0:hasInputPort>
                                    <j.0:hasInputPort>
                                          <j.0:Port rdf:ID="MODFLOW-96_node_BAS">
                                                <j.0:satisfiesRole>
                                                      <rdf:Description rdf:ID="MODFLOW-96_node_BAS_role">
                                                            <j.0:hasDimensionality
                                                             rdf:datatype=
                                                            "http://www.w3.org/2001/XMLSchema#integer"
                                                            >0</j.0:hasDimensionality>
                                                            <j.0:hasRoleID
                                                             rdf:datatype=
                                                            "http://www.w3.org/2001/XMLSchema#string"
                                                            >BAS</j.0:hasRoleID>
                                                      </rdf:Description>
                                                </j.0:satisfiesRole>
                                          </j.0:Port>
                                    </j.0:hasInputPort>
                                    <j.0:hasOutputPort>
                                          <j.0:Port rdf:ID="MODFLOW-96_node_DDOWN">
                                                <j.0:satisfiesRole>
                                                      <rdf:Description rdf:ID="MODFLOW-96_node_DDOWN_role">
                                                            <j.0:hasDimensionality
                                                             rdf:datatype=
                                                            "http://www.w3.org/2001/XMLSchema#integer"
                                                            >0</j.0:hasDimensionality>
                                                            <j.0:hasRoleID
                                                             rdf:datatype=
                                                            "http://www.w3.org/2001/XMLSchema#string"
                                                            >DDOWN</j.0:hasRoleID>
                                                      </rdf:Description>
                                                </j.0:satisfiesRole>
                                          </j.0:Port>
                                    </j.0:hasOutputPort>
                                    <j.0:hasInputPort>
                                          <j.0:Port rdf:ID="MODFLOW-96_node_BCF">
                                                <j.0:satisfiesRole>
                                                      <rdf:Description rdf:ID="MODFLOW-96_node_BCF_role">
                                                            <j.0:hasDimensionality
                                                             rdf:datatype=
                                                            "http://www.w3.org/2001/XMLSchema#integer"
                                                            >0</j.0:hasDimensionality>
                                                            <j.0:hasRoleID
                                                             rdf:datatype=
                                                            "http://www.w3.org/2001/XMLSchema#string"
                                                            >BCF</j.0:hasRoleID>
                                                      </rdf:Description>
                                                </j.0:satisfiesRole>
                                          </j.0:Port>
                                    </j.0:hasInputPort>
                                    <j.0:hasComponent>
                                          <rdf:Description rdf:ID="MODFLOW-96_node_comp">
                                                <j.0:isConcrete
                                                 rdf:datatype=
                                                "http://www.w3.org/2001/XMLSchema#boolean"
                                                >true</j.0:isConcrete>
                                                <j.0:hasComponentBinding rdf:resource="../components/library.owl#MODFLOW-96"/>
                                          </rdf:Description>
                                    </j.0:hasComponent>
                                    <j.0:hasInputPort>
                                          <j.0:Port rdf:ID="MODFLOW-96_node_NAM">
                                                <j.0:satisfiesRole>
                                                      <rdf:Description rdf:ID="MODFLOW-96_node_NAM_role">
                                                            <j.0:hasDimensionality
                                                             rdf:datatype=
                                                            "http://www.w3.org/2001/XMLSchema#integer"
                                                            >0</j.0:hasDimensionality>
                                                            <j.0:hasRoleID
                                                             rdf:datatype=
                                                            "http://www.w3.org/2001/XMLSchema#string"
                                                            >NAM</j.0:hasRoleID>
                                                      </rdf:Description>
                                                </j.0:satisfiesRole>
                                          </j.0:Port>
                                    </j.0:hasInputPort>
                                    <j.0:hasOutputPort>
                                          <j.0:Port rdf:ID="MODFLOW-96_node_LIST">
                                                <j.0:satisfiesRole>
                                                      <rdf:Description rdf:ID="MODFLOW-96_node_LIST_role">
                                                            <j.0:hasDimensionality
                                                             rdf:datatype=
                                                            "http://www.w3.org/2001/XMLSchema#integer"
                                                            >0</j.0:hasDimensionality>
                                                            <j.0:hasRoleID
                                                             rdf:datatype=
                                                            "http://www.w3.org/2001/XMLSchema#string"
                                                            >LIST</j.0:hasRoleID>
                                                      </rdf:Description>
                                                </j.0:satisfiesRole>
                                          </j.0:Port>
                                    </j.0:hasOutputPort>
                                    <rdfs:comment rdf:datatype=
                                    "http://www.w3.org/2001/XMLSchema#string"
                                    >center:x=304.2980808258057,y=138.3210096359253</rdfs:comment>
                                    <j.0:hasOutputPort>
                                          <j.0:Port rdf:ID="MODFLOW-96_node_BUDGET">
                                                <j.0:satisfiesRole>
                                                      <rdf:Description rdf:ID="MODFLOW-96_node_BUDGET_role">
                                                            <j.0:hasDimensionality
                                                             rdf:datatype=
                                                            "http://www.w3.org/2001/XMLSchema#integer"
                                                            >0</j.0:hasDimensionality>
                                                            <j.0:hasRoleID
                                                             rdf:datatype=
                                                            "http://www.w3.org/2001/XMLSchema#string"
                                                            >BUDGET</j.0:hasRoleID>
                                                      </rdf:Description>
                                                </j.0:satisfiesRole>
                                          </j.0:Port>
                                    </j.0:hasOutputPort>
                                    <j.0:hasComponentSetCreationRule>
                                          <j.0:ComponentSetRule rdf:ID="MODFLOW-96_node_crule">
                                                <j.0:createSetsOn rdf:resource="#MODFLOW-96_node_comp"/>
                                                <j.0:createWorkflowSets
                                                 rdf:datatype=
                                                "http://www.w3.org/2001/XMLSchema#boolean"
                                                >true</j.0:createWorkflowSets>
                                          </j.0:ComponentSetRule>
                                    </j.0:hasComponentSetCreationRule>
                                    <j.0:hasPortSetCreationRule>
                                          <j.0:PortSetRule rdf:ID="MODFLOW-96_node_prule">
                                                <j.0:createSetsOn>
                                                      <j.0:XProduct rdf:ID="_xprod-c0efc6d3-92c9-41fc-913a-9edf7fe1be5d">
                                                            <j.0:hasExpressionArgument rdf:resource="#MODFLOW-96_node_BCF"/>
                                                            <j.0:hasExpressionArgument rdf:resource="#MODFLOW-96_node_OutputControl"/>
                                                            <j.0:hasExpressionArgument rdf:resource="#MODFLOW-96_node_BAS"/>
                                                            <j.0:hasExpressionArgument rdf:resource="#MODFLOW-96_node_SIP"/>
                                                            <j.0:hasExpressionArgument rdf:resource="#MODFLOW-96_node_MT3D"/>
                                                            <j.0:hasExpressionArgument rdf:resource="#MODFLOW-96_node_NAM"/>
                                                            <j.0:hasExpressionArgument>
                                                            
      <j.0:Port rdf:ID="MODFLOW-96_node_DRN">
            <j.0:satisfiesRole>
                  <rdf:Description rdf:ID="MODFLOW-96_node_DRN_role">
                        <j.0:hasDimensionality rdf:datatype="http://www.w3.org/2001/XMLSchema#integer"
                        >0</j.0:hasDimensionality>
                        <j.0:hasRoleID rdf:datatype="http://www.w3.org/2001/XMLSchema#string"
                        >DRN</j.0:hasRoleID>
                  </rdf:Description>
            </j.0:satisfiesRole>
      </j.0:Port>                                           </j.0:hasExpressionArgument>
                                                            <j.0:hasExpressionArgument>
                                                            
      <j.0:Port rdf:ID="MODFLOW-96_node_RECHARGE">
            <j.0:satisfiesRole>
                  <rdf:Description rdf:ID="MODFLOW-96_node_RECHARGE_role">
                        <j.0:hasDimensionality rdf:datatype="http://www.w3.org/2001/XMLSchema#integer"
                        >0</j.0:hasDimensionality>
                        <j.0:hasRoleID rdf:datatype="http://www.w3.org/2001/XMLSchema#string"
                        >RECHARGE</j.0:hasRoleID>
                  </rdf:Description>
            </j.0:satisfiesRole>
      </j.0:Port>                                           </j.0:hasExpressionArgument>
                                                            <j.0:hasExpressionArgument rdf:resource="#MODFLOW-96_node_PCG"/>
                                                            <j.0:hasExpressionArgument rdf:resource="#MODFLOW-96_node_HFB"/>
                                                            <j.0:hasExpressionArgument rdf:resource="#MODFLOW-96_node_WELL"/>
                                                      </j.0:XProduct>
                                                </j.0:createSetsOn>
                                                <j.0:createComponentSets
                                                 rdf:datatype=
                                                "http://www.w3.org/2001/XMLSchema#boolean"
                                                >true</j.0:createComponentSets>
                                          </j.0:PortSetRule>
                                    </j.0:hasPortSetCreationRule>
                                    <j.0:hasInputPort rdf:resource="#MODFLOW-96_node_DRN"/>
                                    <j.0:hasInputPort rdf:resource="#MODFLOW-96_node_RECHARGE"/>
                                    <j.0:hasOutputPort>
                                          <j.0:Port rdf:ID="MODFLOW-96_node_GLOBAL">
                                                <j.0:satisfiesRole>
                                                      <rdf:Description rdf:ID="MODFLOW-96_node_GLOBAL_role">
                                                            <j.0:hasDimensionality
                                                             rdf:datatype=
                                                            "http://www.w3.org/2001/XMLSchema#integer"
                                                            >0</j.0:hasDimensionality>
                                                            <j.0:hasRoleID
                                                             rdf:datatype=
                                                            "http://www.w3.org/2001/XMLSchema#string"
                                                            >GLOBAL</j.0:hasRoleID>
                                                      </rdf:Description>
                                                </j.0:satisfiesRole>
                                          </j.0:Port>
                                    </j.0:hasOutputPort>
                              </j.0:Node>
                        </j.0:hasDestinationNode>
                        <j.0:hasDestinationPort rdf:resource="#MODFLOW-96_node_HFB"/>
                  </j.0:InputLink>
            </j.0:hasLink>
            <j.0:hasNode>
                  <j.0:Node rdf:ID="ExtractDataResults_node1">
                        <j.0:hasComponent>
                              <rdf:Description rdf:ID="ExtractDataResults_node1_comp">
                                    <j.0:isConcrete rdf:datatype=
                                    "http://www.w3.org/2001/XMLSchema#boolean"
                                    >true</j.0:isConcrete>
                                    <j.0:hasComponentBinding rdf:resource="../components/library.owl#ExtractDataResults"/>
                              </rdf:Description>
                        </j.0:hasComponent>
                        <j.0:hasComponentSetCreationRule>
                              <j.0:ComponentSetRule rdf:ID="ExtractDataResults_node1_crule">
                                    <j.0:createSetsOn rdf:resource="#ExtractDataResults_node1_comp"/>
                                    <j.0:createWorkflowSets rdf:datatype=
                                    "http://www.w3.org/2001/XMLSchema#boolean"
                                    >true</j.0:createWorkflowSets>
                              </j.0:ComponentSetRule>
                        </j.0:hasComponentSetCreationRule>
                        <j.0:hasInputPort>
                              <j.0:Port rdf:ID="ExtractDataResults_node1_simulation_results">
                                    <j.0:satisfiesRole>
                                          <rdf:Description rdf:ID="ExtractDataResults_node1_simulation_results_role">
                                                <j.0:hasDimensionality
                                                 rdf:datatype=
                                                "http://www.w3.org/2001/XMLSchema#integer"
                                                >0</j.0:hasDimensionality>
                                                <j.0:hasRoleID
                                                 rdf:datatype=
                                                "http://www.w3.org/2001/XMLSchema#string"
                                                >simulation_results</j.0:hasRoleID>
                                          </rdf:Description>
                                    </j.0:satisfiesRole>
                              </j.0:Port>
                        </j.0:hasInputPort>
                        <j.0:hasOutputPort>
                              <j.0:Port rdf:ID="ExtractDataResults_node1_extracted_data">
                                    <j.0:satisfiesRole>
                                          <rdf:Description rdf:ID="ExtractDataResults_node1_extracted_data_role">
                                                <j.0:hasDimensionality
                                                 rdf:datatype=
                                                "http://www.w3.org/2001/XMLSchema#integer"
                                                >0</j.0:hasDimensionality>
                                                <j.0:hasRoleID
                                                 rdf:datatype=
                                                "http://www.w3.org/2001/XMLSchema#string"
                                                >extracted_data</j.0:hasRoleID>
                                          </rdf:Description>
                                    </j.0:satisfiesRole>
                              </j.0:Port>
                        </j.0:hasOutputPort>
                        <j.0:hasPortSetCreationRule>
                              <j.0:PortSetRule rdf:ID="ExtractDataResults_node1_prule">
                                    <j.0:createSetsOn>
                                          <j.0:XProduct rdf:ID="_xprod-b3510dc9-8602-478e-9ec0-0614ec1680ea">
                                                <j.0:hasExpressionArgument rdf:resource="#ExtractDataResults_node1_simulation_results"/>
                                          </j.0:XProduct>
                                    </j.0:createSetsOn>
                                    <j.0:createComponentSets rdf:datatype=
                                    "http://www.w3.org/2001/XMLSchema#boolean"
                                    >true</j.0:createComponentSets>
                              </j.0:PortSetRule>
                        </j.0:hasPortSetCreationRule>
                        <rdfs:comment rdf:datatype="http://www.w3.org/2001/XMLSchema#string"
                        >center:x=911.1974975585938,y=268.99045848846436</rdfs:comment>
                  </j.0:Node>
            </j.0:hasNode>
            <j.0:hasLink>
                  <j.0:OutputLink rdf:ID="ExtractDataResults_node_extracted_data_output">