<?xml version="1.0"?>
<rdf:RDF
    xmlns:rdf="http://www.w3.org/1999/02/22-rdf-syntax-ns#"
    xmlns:j.0="http://www.wings-workflows.org/ontology/workflow.owl#"
    xmlns:owl="http://www.w3.org/2002/07/owl#"
    xmlns:rdfs="http://www.w3.org/2000/01/rdf-schema#"
    xmlns:xsd="http://www.w3.org/2001/XMLSchema#"
      xml:base="http://localhost:8080/wings-portal/export/users/lucas/TACC/workflows/RechargeAndBudgetProcessing.owl">
      <owl:Ontology rdf:about="">
            <owl:imports rdf:resource="http://www.wings-workflows.org/ontology/workflow.owl"/>
      </owl:Ontology>
      <j.0:WorkflowTemplate rdf:ID="RechargeAndBudgetProcessing">
            <j.0:hasNode>
                  <j.0:Node rdf:ID="MODFLOW-USG_node">
                        <j.0:hasInputPort>
                              <j.0:Port rdf:ID="MODFLOW-USG_node_DRN">
                                    <j.0:satisfiesRole>
                                          <rdf:Description rdf:ID="MODFLOW-USG_node_DRN_role">
                                                <j.0:hasDimensionality
                                                 rdf:datatype=
                                                "http://www.w3.org/2001/XMLSchema#integer"
                                                >0</j.0:hasDimensionality>
                                                <j.0:hasRoleID
                                                 rdf:datatype=
                                                "http://www.w3.org/2001/XMLSchema#string"
                                                >DRN</j.0:hasRoleID>
                                          </rdf:Description>
                                    </j.0:satisfiesRole>
                              </j.0:Port>
                        </j.0:hasInputPort>
                        <j.0:hasInputPort>
                              <j.0:Port rdf:ID="MODFLOW-USG_node_MT3D">
                                    <j.0:satisfiesRole>
                                          <rdf:Description rdf:ID="MODFLOW-USG_node_MT3D_role">
                                                <j.0:hasDimensionality
                                                 rdf:datatype=
                                                "http://www.w3.org/2001/XMLSchema#integer"
                                                >0</j.0:hasDimensionality>
                                                <j.0:hasRoleID
                                                 rdf:datatype=
                                                "http://www.w3.org/2001/XMLSchema#string"
                                                >MT3D</j.0:hasRoleID>
                                          </rdf:Description>
                                    </j.0:satisfiesRole>
                              </j.0:Port>
                        </j.0:hasInputPort>
                        <j.0:hasOutputPort>
                              <j.0:Port rdf:ID="MODFLOW-USG_node_HEADS">
                                    <j.0:satisfiesRole>
                                          <rdf:Description rdf:ID="MODFLOW-USG_node_HEADS_role">
                                                <j.0:hasDimensionality
                                                 rdf:datatype=
                                                "http://www.w3.org/2001/XMLSchema#integer"
                                                >0</j.0:hasDimensionality>
                                                <j.0:hasRoleID
                                                 rdf:datatype=
                                                "http://www.w3.org/2001/XMLSchema#string"
                                                >HEADS</j.0:hasRoleID>
                                          </rdf:Description>
                                    </j.0:satisfiesRole>
                              </j.0:Port>
                        </j.0:hasOutputPort>
                        <j.0:hasInputPort>
                              <j.0:Port rdf:ID="MODFLOW-USG_node_NAM">
                                    <j.0:satisfiesRole>
                                          <rdf:Description rdf:ID="MODFLOW-USG_node_NAM_role">
                                                <j.0:hasDimensionality
                                                 rdf:datatype=
                                                "http://www.w3.org/2001/XMLSchema#integer"
                                                >0</j.0:hasDimensionality>
                                                <j.0:hasRoleID
                                                 rdf:datatype=
                                                "http://www.w3.org/2001/XMLSchema#string"
                                                >NAM</j.0:hasRoleID>
                                          </rdf:Description>
                                    </j.0:satisfiesRole>
                              </j.0:Port>
                        </j.0:hasInputPort>
                        <j.0:hasInputPort>
                              <j.0:Port rdf:ID="MODFLOW-USG_node_BCF">
                                    <j.0:satisfiesRole>
                                          <rdf:Description rdf:ID="MODFLOW-USG_node_BCF_role">
                                                <j.0:hasDimensionality
                                                 rdf:datatype=
                                                "http://www.w3.org/2001/XMLSchema#integer"
                                                >0</j.0:hasDimensionality>
                                                <j.0:hasRoleID
                                                 rdf:datatype=
                                                "http://www.w3.org/2001/XMLSchema#string"
                                                >BCF</j.0:hasRoleID>
                                          </rdf:Description>
                                    </j.0:satisfiesRole>
                              </j.0:Port>
                        </j.0:hasInputPort>
                        <j.0:hasOutputPort>
                              <j.0:Port rdf:ID="MODFLOW-USG_node_DDOWN">
                                    <j.0:satisfiesRole>
                                          <rdf:Description rdf:ID="MODFLOW-USG_node_DDOWN_role">
                                                <j.0:hasDimensionality
                                                 rdf:datatype=
                                                "http://www.w3.org/2001/XMLSchema#integer"
                                                >0</j.0:hasDimensionality>
                                                <j.0:hasRoleID
                                                 rdf:datatype=
                                                "http://www.w3.org/2001/XMLSchema#string"
                                                >DDOWN</j.0:hasRoleID>
                                          </rdf:Description>
                                    </j.0:satisfiesRole>
                              </j.0:Port>
                        </j.0:hasOutputPort>
                        <j.0:hasInputPort>
                              <j.0:Port rdf:ID="MODFLOW-USG_node_WELL">
                                    <j.0:satisfiesRole>
                                          <rdf:Description rdf:ID="MODFLOW-USG_node_WELL_role">
                                                <j.0:hasDimensionality
                                                 rdf:datatype=
                                                "http://www.w3.org/2001/XMLSchema#integer"
                                                >0</j.0:hasDimensionality>
                                                <j.0:hasRoleID
                                                 rdf:datatype=
                                                "http://www.w3.org/2001/XMLSchema#string"
                                                >WELL</j.0:hasRoleID>
                                          </rdf:Description>
                                    </j.0:satisfiesRole>
                              </j.0:Port>
                        </j.0:hasInputPort>
                        <j.0:hasInputPort>
                              <j.0:Port rdf:ID="MODFLOW-USG_node_BAS">
                                    <j.0:satisfiesRole>
                                          <rdf:Description rdf:ID="MODFLOW-USG_node_BAS_role">
                                                <j.0:hasDimensionality
                                                 rdf:datatype=
                                                "http://www.w3.org/2001/XMLSchema#integer"
                                                >0</j.0:hasDimensionality>
                                                <j.0:hasRoleID
                                                 rdf:datatype=
                                                "http://www.w3.org/2001/XMLSchema#string"
                                                >BAS</j.0:hasRoleID>
                                          </rdf:Description>
                                    </j.0:satisfiesRole>
                              </j.0:Port>
                        </j.0:hasInputPort>
                        <rdfs:comment rdf:datatype="http://www.w3.org/2001/XMLSchema#string"
                        >center:x=411.4964668273926,y=543.3369398117065</rdfs:comment>
                        <j.0:hasInputPort>
                              <j.0:Port rdf:ID="MODFLOW-USG_node_OutputControl">
                                    <j.0:satisfiesRole>
                                          <rdf:Description rdf:ID="MODFLOW-USG_node_OutputControl_role">
                                                <j.0:hasDimensionality
                                                 rdf:datatype=
                                                "http://www.w3.org/2001/XMLSchema#integer"
                                                >0</j.0:hasDimensionality>
                                                <j.0:hasRoleID
                                                 rdf:datatype=
                                                "http://www.w3.org/2001/XMLSchema#string"
                                                >OutputControl</j.0:hasRoleID>
                                          </rdf:Description>
                                    </j.0:satisfiesRole>
                              </j.0:Port>
                        </j.0:hasInputPort>
                        <j.0:hasOutputPort>
                              <j.0:Port rdf:ID="MODFLOW-USG_node_BUDGET">
                                    <j.0:satisfiesRole>
                                          <rdf:Description rdf:ID="MODFLOW-USG_node_BUDGET_role">
                                                <j.0:hasDimensionality
                                                 rdf:datatype=
                                                "http://www.w3.org/2001/XMLSchema#integer"
                                                >0</j.0:hasDimensionality>
                                                <j.0:hasRoleID
                                                 rdf:datatype=
                                                "http://www.w3.org/2001/XMLSchema#string"
                                                >BUDGET</j.0:hasRoleID>
                                          </rdf:Description>
                                    </j.0:satisfiesRole>
                              </j.0:Port>
                        </j.0:hasOutputPort>
                        <j.0:hasInputPort>
                              <j.0:Port rdf:ID="MODFLOW-USG_node_HFB">
                                    <j.0:satisfiesRole>
                                          <rdf:Description rdf:ID="MODFLOW-USG_node_HFB_role">
                                                <j.0:hasDimensionality
                                                 rdf:datatype=
                                                "http://www.w3.org/2001/XMLSchema#integer"
                                                >0</j.0:hasDimensionality>
                                                <j.0:hasRoleID
                                                 rdf:datatype=
                                                "http://www.w3.org/2001/XMLSchema#string"
                                                >HFB</j.0:hasRoleID>
                                          </rdf:Description>
                                    </j.0:satisfiesRole>
                              </j.0:Port>
                        </j.0:hasInputPort>
                        <j.0:hasComponentSetCreationRule>
                              <j.0:ComponentSetRule rdf:ID="MODFLOW-USG_node_crule">
                                    <j.0:createSetsOn>
                                          <rdf:Description rdf:ID="MODFLOW-USG_node_comp">
                                                <j.0:isConcrete
                                                 rdf:datatype=
                                                "http://www.w3.org/2001/XMLSchema#boolean"
                                                >true</j.0:isConcrete>
                                                <j.0:hasComponentBinding rdf:resource="../components/library.owl#MODFLOW-USG"/>
                                          </rdf:Description>
                                    </j.0:createSetsOn>
                                    <j.0:createWorkflowSets rdf:datatype=
                                    "http://www.w3.org/2001/XMLSchema#boolean"
                                    >true</j.0:createWorkflowSets>
                              </j.0:ComponentSetRule>
                        </j.0:hasComponentSetCreationRule>
                        <j.0:hasOutputPort>
                              <j.0:Port rdf:ID="MODFLOW-USG_node_LIST">
                                    <j.0:satisfiesRole>
                                          <rdf:Description rdf:ID="MODFLOW-USG_node_LIST_role">
                                                <j.0:hasDimensionality
                                                 rdf:datatype=
                                                "http://www.w3.org/2001/XMLSchema#integer"
                                                >0</j.0:hasDimensionality>
                                                <j.0:hasRoleID
                                                 rdf:datatype=
                                                "http://www.w3.org/2001/XMLSchema#string"
                                                >LIST</j.0:hasRoleID>
                                          </rdf:Description>
                                    </j.0:satisfiesRole>
                              </j.0:Port>
                        </j.0:hasOutputPort>
                        <j.0:hasComponent rdf:resource="#MODFLOW-USG_node_comp"/>
                        <j.0:hasPortSetCreationRule>
                              <j.0:PortSetRule rdf:ID="MODFLOW-USG_node_prule">
                                    <j.0:createSetsOn>
                                          <j.0:XProduct rdf:ID="_xprod-1a848410-d7c8-4732-8514-610650d73f0c">
                                                <j.0:hasExpressionArgument>
                                                      <j.0:Port rdf:ID="MODFLOW-USG_node_PCG">
                                                            <j.0:satisfiesRole>
                                                            
      <rdf:Description rdf:ID="MODFLOW-USG_node_PCG_role">
            <j.0:hasDimensionality rdf:datatype="http://www.w3.org/2001/XMLSchema#integer"
            >0</j.0:hasDimensionality>
            <j.0:hasRoleID rdf:datatype="http://www.w3.org/2001/XMLSchema#string"
            >PCG</j.0:hasRoleID>
      </rdf:Description>                                    </j.0:satisfiesRole>
                                                      </j.0:Port>
                                                </j.0:hasExpressionArgument>
                                                <j.0:hasExpressionArgument rdf:resource="#MODFLOW-USG_node_HFB"/>
                                                <j.0:hasExpressionArgument rdf:resource="#MODFLOW-USG_node_DRN"/>
                                                <j.0:hasExpressionArgument rdf:resource="#MODFLOW-USG_node_NAM"/>
                                                <j.0:hasExpressionArgument>
                                                      <j.0:Port rdf:ID="MODFLOW-USG_node_RECHARGE">
                                                            <j.0:satisfiesRole>
                                                            
      <rdf:Description rdf:ID="MODFLOW-USG_node_RECHARGE_role">
            <j.0:hasDimensionality rdf:datatype="http://www.w3.org/2001/XMLSchema#integer"
            >0</j.0:hasDimensionality>
            <j.0:hasRoleID rdf:datatype="http://www.w3.org/2001/XMLSchema#string"
            >RECHARGE</j.0:hasRoleID>
      </rdf:Description>                                    </j.0:satisfiesRole>
                                                      </j.0:Port>
                                                </j.0:hasExpressionArgument>
                                                <j.0:hasExpressionArgument rdf:resource="#MODFLOW-USG_node_OutputControl"/>
                                                <j.0:hasExpressionArgument rdf:resource="#MODFLOW-USG_node_BCF"/>
                                                <j.0:hasExpressionArgument rdf:resource="#MODFLOW-USG_node_BAS"/>
                                                <j.0:hasExpressionArgument rdf:resource="#MODFLOW-USG_node_WELL"/>
                                                <j.0:hasExpressionArgument>
                                                      <j.0:Port rdf:ID="MODFLOW-USG_node_SIP">
                                                            <j.0:satisfiesRole>
                                                            
      <rdf:Description rdf:ID="MODFLOW-USG_node_SIP_role">
            <j.0:hasDimensionality rdf:datatype="http://www.w3.org/2001/XMLSchema#integer"
            >0</j.0:hasDimensionality>
            <j.0:hasRoleID rdf:datatype="http://www.w3.org/2001/XMLSchema#string"
            >SIP</j.0:hasRoleID>
      </rdf:Description>                                    </j.0:satisfiesRole>
                                                      </j.0:Port>
                                                </j.0:hasExpressionArgument>
                                                <j.0:hasExpressionArgument rdf:resource="#MODFLOW-USG_node_MT3D"/>
                                          </j.0:XProduct>
                                    </j.0:createSetsOn>
                                    <j.0:createComponentSets rdf:datatype=
                                    "http://www.w3.org/2001/XMLSchema#boolean"
                                    >true</j.0:createComponentSets>
                              </j.0:PortSetRule>
                        </j.0:hasPortSetCreationRule>
                        <j.0:hasInputPort rdf:resource="#MODFLOW-USG_node_RECHARGE"/>
                        <j.0:hasInputPort rdf:resource="#MODFLOW-USG_node_PCG"/>
                        <j.0:hasOutputPort>
                              <j.0:Port rdf:ID="MODFLOW-USG_node_GLOBAL">
                                    <j.0:satisfiesRole>
                                          <rdf:Description rdf:ID="MODFLOW-USG_node_GLOBAL_role">
                                                <j.0:hasDimensionality
                                                 rdf:datatype=
                                                "http://www.w3.org/2001/XMLSchema#integer"
                                                >0</j.0:hasDimensionality>
                                                <j.0:hasRoleID
                                                 rdf:datatype=
                                                "http://www.w3.org/2001/XMLSchema#string"
                                                >GLOBAL</j.0:hasRoleID>
                                          </rdf:Description>
                                    </j.0:satisfiesRole>
                              </j.0:Port>
                        </j.0:hasOutputPort>
                        <j.0:hasInputPort rdf:resource="#MODFLOW-USG_node_SIP"/>
                  </j.0:Node>
            </j.0:hasNode>
            <j.0:hasLink>
                  <j.0:InputLink rdf:ID="MODFLOW-USG_node_HFB_input">
                        <j.0:hasVariable>
                              <j.0:DataVariable rdf:ID="HFB">
                                    <rdfs:comment rdf:datatype=
                                    "http://www.w3.org/2001/XMLSchema#string"
                                    >center:x=264.0973690032959,y=470.0073652267456</rdfs:comment>
                              </j.0:DataVariable>
                        </j.0:hasVariable>
                        <j.0:hasDestinationNode rdf:resource="#MODFLOW-USG_node"/>
                        <j.0:hasDestinationPort rdf:resource="#MODFLOW-USG_node_HFB"/>
                  </j.0:InputLink>
            </j.0:hasLink>
            <j.0:hasLink>
                  <j.0:InOutLink rdf:ID="FormatTransformation_node_recharge_package_to_MODFLOW-USG_node_RECHARGE">
                        <j.0:hasDestinationNode rdf:resource="#MODFLOW-USG_node"/>
                        <j.0:hasDestinationPort rdf:resource="#MODFLOW-USG_node_RECHARGE"/>
                        <j.0:hasOriginNode>
                              <j.0:Node rdf:ID="FormatTransformation_node">
                                    <j.0:hasComponent>
                                          <rdf:Description rdf:ID="FormatTransformation_node_comp">
                                                <j.0:isConcrete
                                                 rdf:datatype=
                                                "http://www.w3.org/2001/XMLSchema#boolean"
                                                >true</j.0:isConcrete>
                                                <j.0:hasComponentBinding rdf:resource="../components/library.owl#FormatTransformation"/>
                                          </rdf:Description>
                                    </j.0:hasComponent>
                                    <j.0:hasComponentSetCreationRule>
                                          <j.0:ComponentSetRule rdf:ID="FormatTransformation_node_crule">
                                                <j.0:createSetsOn rdf:resource="#FormatTransformation_node_comp"/>
                                                <j.0:createWorkflowSets
                                                 rdf:datatype=
                                                "http://www.w3.org/2001/XMLSchema#boolean"
                                                >true</j.0:createWorkflowSets>
                                          </j.0:ComponentSetRule>
                                    </j.0:hasComponentSetCreationRule>
                                    <j.0:hasInputPort>
                                          <j.0:Port rdf:ID="FormatTransformation_node_recharge_area">
                                                <j.0:satisfiesRole>
                                                      <rdf:Description rdf:ID="FormatTransformation_node_recharge_area_role">
                                                            <j.0:hasDimensionality
                                                             rdf:datatype=
                                                            "http://www.w3.org/2001/XMLSchema#integer"
                                                            >0</j.0:hasDimensionality>
                                                            <j.0:hasRoleID
                                                             rdf:datatype=
                                                            "http://www.w3.org/2001/XMLSchema#string"
                                                            >recharge_area</j.0:hasRoleID>
                                                      </rdf:Description>
                                                </j.0:satisfiesRole>
                                          </j.0:Port>
                                    </j.0:hasInputPort>
                                    <j.0:hasOutputPort>
                                          <j.0:Port rdf:ID="FormatTransformation_node_recharge_package">
                                                <j.0:satisfiesRole>
                                                      <rdf:Description rdf:ID="FormatTransformation_node_recharge_package_role">
                                                            <j.0:hasDimensionality
                                                             rdf:datatype=
                                                            "http://www.w3.org/2001/XMLSchema#integer"
                                                            >0</j.0:hasDimensionality>
                                                            <j.0:hasRoleID
                                                             rdf:datatype=
                                                            "http://www.w3.org/2001/XMLSchema#string"
                                                            >recharge_package</j.0:hasRoleID>
                                                      </rdf:Description>
                                                </j.0:satisfiesRole>
                                          </j.0:Port>
                                    </j.0:hasOutputPort>
                                    <j.0:hasPortSetCreationRule>
                                          <j.0:PortSetRule rdf:ID="FormatTransformation_node_prule">
                                                <j.0:createSetsOn>
                                                      <j.0:XProduct rdf:ID="_xprod-876e1425-48be-49a8-b036-babb0c524e6c">
                                                            <j.0:hasExpressionArgument rdf:resource="#FormatTransformation_node_recharge_area"/>
                                                      </j.0:XProduct>
                                                </j.0:createSetsOn>
                                                <j.0:createComponentSets
                                                 rdf:datatype=
                                                "http://www.w3.org/2001/XMLSchema#boolean"
                                                >true</j.0:createComponentSets>
                                          </j.0:PortSetRule>
                                    </j.0:hasPortSetCreationRule>
                                    <rdfs:comment rdf:datatype=
                                    "http://www.w3.org/2001/XMLSchema#string"
                                    >center:x=698.5964668273926,y=396.6585645675659</rdfs:comment>
                              </j.0:Node>
                        </j.0:hasOriginNode>
                        <j.0:hasOriginPort rdf:resource="#FormatTransformation_node_recharge_package"/>
                        <j.0:hasVariable>
                              <j.0:DataVariable rdf:ID="RECHARGE">
                                    <rdfs:comment rdf:datatype=
                                    "http://www.w3.org/2001/XMLSchema#string"
                                    >center:x=698.5964668273926,y=470.0073652267456</rdfs:comment>
                              </j.0:DataVariable>
                        </j.0:hasVariable>
                  </j.0:InOutLink>
            </j.0:hasLink>
            <j.0:hasInputRole>
                  <j.0:Role rdf:ID="larger_area_irole">
                        <j.0:hasDimensionality rdf:datatype="http://www.w3.org/2001/XMLSchema#integer"
                        >0</j.0:hasDimensionality>
                        <j.0:mapsToVariable>
                              <j.0:DataVariable rdf:ID="larger_area">
                                    <rdfs:comment rdf:datatype=
                                    "http://www.w3.org/2001/XMLSchema#string"
                                    >center:x=743.7008644104004,y=176.67455577850342</rdfs:comment>
                              </j.0:DataVariable>
                        </j.0:mapsToVariable>
                        <j.0:hasRoleID rdf:datatype="http://www.w3.org/2001/XMLSchema#string"
                        >MapIntersection_node_larger_area</j.0:hasRoleID>
                  </j.0:Role>
            </j.0:hasInputRole>
            <j.0:hasNode rdf:resource="#FormatTransformation_node"/>
            <j.0:hasInputRole>
                  <j.0:Role rdf:ID="factor_irole">
                        <j.0:hasDimensionality rdf:datatype="http://www.w3.org/2001/XMLSchema#integer"
                        >0</j.0:hasDimensionality>
                        <j.0:mapsToVariable>
                              <j.0:ParameterVariable rdf:ID="factor">
                                    <rdfs:comment rdf:datatype=
                                    "http://www.w3.org/2001/XMLSchema#string"
                                    >center:x=608.4035331726075,y=29.986567497253418</rdfs:comment>
                              </j.0:ParameterVariable>
                        </j.0:mapsToVariable>
                        <j.0:hasRoleID rdf:datatype="http://www.w3.org/2001/XMLSchema#string"
                        >CalculateRecharge_node_factor</j.0:hasRoleID>
                  </j.0:Role>
            </j.0:hasInputRole>
            <j.0:hasLink>
                  <j.0:OutputLink rdf:ID="VisualizeBudget_node_flux_x_time_for_storage_and_capture_output">
                        <j.0:hasVariable>
                              <j.0:DataVariable rdf:ID="flux_x_time_for_storage_and_capture">
                                    <rdfs:comment rdf:datatype=
                                    "http://www.w3.org/2001/XMLSchema#string"