<?xml version="1.0"?>
<rdf:RDF
    xmlns:rdf="http://www.w3.org/1999/02/22-rdf-syntax-ns#"
    xmlns:j.0="http://www.wings-workflows.org/ontology/workflow.owl#"
    xmlns:owl="http://www.w3.org/2002/07/owl#"
    xmlns:rdfs="http://www.w3.org/2000/01/rdf-schema#"
    xmlns:xsd="http://www.w3.org/2001/XMLSchema#"
      xml:base="http://localhost:8080/wings-portal/export/users/lucas/TACC/workflows/VisualizeBudgetPostProcessing.owl">
      <owl:Ontology rdf:about="">
            <owl:imports rdf:resource="http://www.wings-workflows.org/ontology/workflow.owl"/>
      </owl:Ontology>
      <j.0:WorkflowTemplate rdf:ID="VisualizeBudgetPostProcessing">
            <j.0:hasInputRole>
                  <j.0:Role rdf:ID="BCF_irole">
                        <j.0:hasDimensionality rdf:datatype="http://www.w3.org/2001/XMLSchema#integer"
                        >0</j.0:hasDimensionality>
                        <j.0:mapsToVariable>
                              <j.0:DataVariable rdf:ID="BCF">
                                    <rdfs:comment rdf:datatype=
                                    "http://www.w3.org/2001/XMLSchema#string"
                                    >center:x=116.69824285507202,y=29.991374015808105</rdfs:comment>
                              </j.0:DataVariable>
                        </j.0:mapsToVariable>
                        <j.0:hasRoleID rdf:datatype="http://www.w3.org/2001/XMLSchema#string"
                        >MODFLOW-USG_node_BCF</j.0:hasRoleID>
                  </j.0:Role>
            </j.0:hasInputRole>
            <j.0:hasNode>
                  <j.0:Node rdf:ID="VisualizeBudget_node">
                        <j.0:hasComponent>
                              <rdf:Description rdf:ID="VisualizeBudget_node_comp">
                                    <j.0:isConcrete rdf:datatype=
                                    "http://www.w3.org/2001/XMLSchema#boolean"
                                    >true</j.0:isConcrete>
                                    <j.0:hasComponentBinding rdf:resource="../components/library.owl#VisualizeBudget"/>
                              </rdf:Description>
                        </j.0:hasComponent>
                        <j.0:hasComponentSetCreationRule>
                              <j.0:ComponentSetRule rdf:ID="VisualizeBudget_node_crule">
                                    <j.0:createSetsOn rdf:resource="#VisualizeBudget_node_comp"/>
                                    <j.0:createWorkflowSets rdf:datatype=
                                    "http://www.w3.org/2001/XMLSchema#boolean"
                                    >true</j.0:createWorkflowSets>
                              </j.0:ComponentSetRule>
                        </j.0:hasComponentSetCreationRule>
                        <j.0:hasInputPort>
                              <j.0:Port rdf:ID="VisualizeBudget_node_processed_data">
                                    <j.0:satisfiesRole>
                                          <rdf:Description rdf:ID="VisualizeBudget_node_processed_data_role">
                                                <j.0:hasDimensionality
                                                 rdf:datatype=
                                                "http://www.w3.org/2001/XMLSchema#integer"
                                                >0</j.0:hasDimensionality>
                                                <j.0:hasRoleID
                                                 rdf:datatype=
                                                "http://www.w3.org/2001/XMLSchema#string"
                                                >processed_data</j.0:hasRoleID>
                                          </rdf:Description>
                                    </j.0:satisfiesRole>
                              </j.0:Port>
                        </j.0:hasInputPort>
                        <j.0:hasOutputPort>
                              <j.0:Port rdf:ID="VisualizeBudget_node_flux_x_time_for_storage_and_capture">
                                    <j.0:satisfiesRole>
                                          <rdf:Description rdf:ID="VisualizeBudget_node_flux_x_time_for_storage_and_capture_role">
                                                <j.0:hasDimensionality
                                                 rdf:datatype=
                                                "http://www.w3.org/2001/XMLSchema#integer"
                                                >0</j.0:hasDimensionality>
                                                <j.0:hasRoleID
                                                 rdf:datatype=
                                                "http://www.w3.org/2001/XMLSchema#string"
                                                >flux_x_time_for_storage_and_capture</j.0:hasRoleID>
                                          </rdf:Description>
                                    </j.0:satisfiesRole>
                              </j.0:Port>
                        </j.0:hasOutputPort>
                        <j.0:hasPortSetCreationRule>
                              <j.0:PortSetRule rdf:ID="VisualizeBudget_node_prule">
                                    <j.0:createSetsOn>
                                          <j.0:XProduct rdf:ID="_xprod-cb192a00-bc6f-4850-882e-64a97ed93034">
                                                <j.0:hasExpressionArgument rdf:resource="#VisualizeBudget_node_processed_data"/>
                                          </j.0:XProduct>
                                    </j.0:createSetsOn>
                                    <j.0:createComponentSets rdf:datatype=
                                    "http://www.w3.org/2001/XMLSchema#boolean"
                                    >true</j.0:createComponentSets>
                              </j.0:PortSetRule>
                        </j.0:hasPortSetCreationRule>
                        <rdfs:comment rdf:datatype="http://www.w3.org/2001/XMLSchema#string"
                        >center:x=192.60351428985598,y=396.65376377105713</rdfs:comment>
                  </j.0:Node>
            </j.0:hasNode>
            <j.0:hasLink>
                  <j.0:OutputLink rdf:ID="MODFLOW-USG_node_LIST_output">
                        <j.0:hasVariable>
                              <j.0:DataVariable rdf:ID="LIST">
                                    <rdfs:comment rdf:datatype=
                                    "http://www.w3.org/2001/XMLSchema#string"
                                    >center:x=564.4000000000001,y=176.65537548065186</rdfs:comment>
                              </j.0:DataVariable>
                        </j.0:hasVariable>
                        <j.0:hasOriginNode>
                              <j.0:Node rdf:ID="MODFLOW-USG_node">
                                    <j.0:hasInputPort>
                                          <j.0:Port rdf:ID="MODFLOW-USG_node_MT3D">
                                                <j.0:satisfiesRole>
                                                      <rdf:Description rdf:ID="MODFLOW-USG_node_MT3D_role">
                                                            <j.0:hasDimensionality
                                                             rdf:datatype=
                                                            "http://www.w3.org/2001/XMLSchema#integer"
                                                            >0</j.0:hasDimensionality>
                                                            <j.0:hasRoleID
                                                             rdf:datatype=
                                                            "http://www.w3.org/2001/XMLSchema#string"
                                                            >MT3D</j.0:hasRoleID>
                                                      </rdf:Description>
                                                </j.0:satisfiesRole>
                                          </j.0:Port>
                                    </j.0:hasInputPort>
                                    <j.0:hasInputPort>
                                          <j.0:Port rdf:ID="MODFLOW-USG_node_BCF">
                                                <j.0:satisfiesRole>
                                                      <rdf:Description rdf:ID="MODFLOW-USG_node_BCF_role">
                                                            <j.0:hasDimensionality
                                                             rdf:datatype=
                                                            "http://www.w3.org/2001/XMLSchema#integer"
                                                            >0</j.0:hasDimensionality>
                                                            <j.0:hasRoleID
                                                             rdf:datatype=
                                                            "http://www.w3.org/2001/XMLSchema#string"
                                                            >BCF</j.0:hasRoleID>
                                                      </rdf:Description>
                                                </j.0:satisfiesRole>
                                          </j.0:Port>
                                    </j.0:hasInputPort>
                                    <j.0:hasOutputPort>
                                          <j.0:Port rdf:ID="MODFLOW-USG_node_DDOWN">
                                                <j.0:satisfiesRole>
                                                      <rdf:Description rdf:ID="MODFLOW-USG_node_DDOWN_role">
                                                            <j.0:hasDimensionality
                                                             rdf:datatype=
                                                            "http://www.w3.org/2001/XMLSchema#integer"
                                                            >0</j.0:hasDimensionality>
                                                            <j.0:hasRoleID
                                                             rdf:datatype=
                                                            "http://www.w3.org/2001/XMLSchema#string"
                                                            >DDOWN</j.0:hasRoleID>
                                                      </rdf:Description>
                                                </j.0:satisfiesRole>
                                          </j.0:Port>
                                    </j.0:hasOutputPort>
                                    <j.0:hasPortSetCreationRule>
                                          <j.0:PortSetRule rdf:ID="MODFLOW-USG_node_prule">
                                                <j.0:createSetsOn>
                                                      <j.0:XProduct rdf:ID="_xprod-612abc9a-f616-449e-b461-c7e89a586c1c">
                                                            <j.0:hasExpressionArgument rdf:resource="#MODFLOW-USG_node_BCF"/>
                                                            <j.0:hasExpressionArgument>
                                                            
      <j.0:Port rdf:ID="MODFLOW-USG_node_HFB">
            <j.0:satisfiesRole>
                  <rdf:Description rdf:ID="MODFLOW-USG_node_HFB_role">
                        <j.0:hasDimensionality rdf:datatype="http://www.w3.org/2001/XMLSchema#integer"
                        >0</j.0:hasDimensionality>
                        <j.0:hasRoleID rdf:datatype="http://www.w3.org/2001/XMLSchema#string"
                        >HFB</j.0:hasRoleID>
                  </rdf:Description>
            </j.0:satisfiesRole>
      </j.0:Port>                                           </j.0:hasExpressionArgument>
                                                            <j.0:hasExpressionArgument>
                                                            
      <j.0:Port rdf:ID="MODFLOW-USG_node_BAS">
            <j.0:satisfiesRole>
                  <rdf:Description rdf:ID="MODFLOW-USG_node_BAS_role">
                        <j.0:hasDimensionality rdf:datatype="http://www.w3.org/2001/XMLSchema#integer"
                        >0</j.0:hasDimensionality>
                        <j.0:hasRoleID rdf:datatype="http://www.w3.org/2001/XMLSchema#string"
                        >BAS</j.0:hasRoleID>
                  </rdf:Description>
            </j.0:satisfiesRole>
      </j.0:Port>                                           </j.0:hasExpressionArgument>
                                                            <j.0:hasExpressionArgument>
                                                            
      <j.0:Port rdf:ID="MODFLOW-USG_node_WELL">
            <j.0:satisfiesRole>
                  <rdf:Description rdf:ID="MODFLOW-USG_node_WELL_role">
                        <j.0:hasDimensionality rdf:datatype="http://www.w3.org/2001/XMLSchema#integer"
                        >0</j.0:hasDimensionality>
                        <j.0:hasRoleID rdf:datatype="http://www.w3.org/2001/XMLSchema#string"
                        >WELL</j.0:hasRoleID>
                  </rdf:Description>
            </j.0:satisfiesRole>
      </j.0:Port>                                           </j.0:hasExpressionArgument>
                                                            <j.0:hasExpressionArgument>
                                                            
      <j.0:Port rdf:ID="MODFLOW-USG_node_DRN">
            <j.0:satisfiesRole>
                  <rdf:Description rdf:ID="MODFLOW-USG_node_DRN_role">
                        <j.0:hasDimensionality rdf:datatype="http://www.w3.org/2001/XMLSchema#integer"
                        >0</j.0:hasDimensionality>
                        <j.0:hasRoleID rdf:datatype="http://www.w3.org/2001/XMLSchema#string"
                        >DRN</j.0:hasRoleID>
                  </rdf:Description>
            </j.0:satisfiesRole>
      </j.0:Port>                                           </j.0:hasExpressionArgument>
                                                            <j.0:hasExpressionArgument rdf:resource="#MODFLOW-USG_node_MT3D"/>
                                                            <j.0:hasExpressionArgument>
                                                            
      <j.0:Port rdf:ID="MODFLOW-USG_node_NAM">
            <j.0:satisfiesRole>
                  <rdf:Description rdf:ID="MODFLOW-USG_node_NAM_role">
                        <j.0:hasDimensionality rdf:datatype="http://www.w3.org/2001/XMLSchema#integer"
                        >0</j.0:hasDimensionality>
                        <j.0:hasRoleID rdf:datatype="http://www.w3.org/2001/XMLSchema#string"
                        >NAM</j.0:hasRoleID>
                  </rdf:Description>
            </j.0:satisfiesRole>
      </j.0:Port>                                           </j.0:hasExpressionArgument>
                                                            <j.0:hasExpressionArgument>
                                                            
      <j.0:Port rdf:ID="MODFLOW-USG_node_OutputControl">
            <j.0:satisfiesRole>
                  <rdf:Description rdf:ID="MODFLOW-USG_node_OutputControl_role">
                        <j.0:hasDimensionality rdf:datatype="http://www.w3.org/2001/XMLSchema#integer"
                        >0</j.0:hasDimensionality>
                        <j.0:hasRoleID rdf:datatype="http://www.w3.org/2001/XMLSchema#string"
                        >OutputControl</j.0:hasRoleID>
                  </rdf:Description>
            </j.0:satisfiesRole>
      </j.0:Port>                                           </j.0:hasExpressionArgument>
                                                            <j.0:hasExpressionArgument>
                                                            
      <j.0:Port rdf:ID="MODFLOW-USG_node_RECHARGE">
            <j.0:satisfiesRole>
                  <rdf:Description rdf:ID="MODFLOW-USG_node_RECHARGE_role">
                        <j.0:hasDimensionality rdf:datatype="http://www.w3.org/2001/XMLSchema#integer"
                        >0</j.0:hasDimensionality>
                        <j.0:hasRoleID rdf:datatype="http://www.w3.org/2001/XMLSchema#string"
                        >RECHARGE</j.0:hasRoleID>
                  </rdf:Description>
            </j.0:satisfiesRole>
      </j.0:Port>                                           </j.0:hasExpressionArgument>
                                                            <j.0:hasExpressionArgument>
                                                            
      <j.0:Port rdf:ID="MODFLOW-USG_node_PCG">
            <j.0:satisfiesRole>
                  <rdf:Description rdf:ID="MODFLOW-USG_node_PCG_role">
                        <j.0:hasDimensionality rdf:datatype="http://www.w3.org/2001/XMLSchema#integer"
                        >0</j.0:hasDimensionality>
                        <j.0:hasRoleID rdf:datatype="http://www.w3.org/2001/XMLSchema#string"
                        >PCG</j.0:hasRoleID>
                  </rdf:Description>
            </j.0:satisfiesRole>
      </j.0:Port>                                           </j.0:hasExpressionArgument>
                                                            <j.0:hasExpressionArgument>
                                                            
      <j.0:Port rdf:ID="MODFLOW-USG_node_SIP">
            <j.0:satisfiesRole>
                  <rdf:Description rdf:ID="MODFLOW-USG_node_SIP_role">
                        <j.0:hasDimensionality rdf:datatype="http://www.w3.org/2001/XMLSchema#integer"
                        >0</j.0:hasDimensionality>
                        <j.0:hasRoleID rdf:datatype="http://www.w3.org/2001/XMLSchema#string"
                        >SIP</j.0:hasRoleID>
                  </rdf:Description>
            </j.0:satisfiesRole>
      </j.0:Port>                                           </j.0:hasExpressionArgument>
                                                      </j.0:XProduct>
                                                </j.0:createSetsOn>
                                                <j.0:createComponentSets
                                                 rdf:datatype=
                                                "http://www.w3.org/2001/XMLSchema#boolean"
                                                >true</j.0:createComponentSets>
                                          </j.0:PortSetRule>
                                    </j.0:hasPortSetCreationRule>
                                    <j.0:hasOutputPort>
                                          <j.0:Port rdf:ID="MODFLOW-USG_node_HEADS">
                                                <j.0:satisfiesRole>
                                                      <rdf:Description rdf:ID="MODFLOW-USG_node_HEADS_role">
                                                            <j.0:hasDimensionality
                                                             rdf:datatype=
                                                            "http://www.w3.org/2001/XMLSchema#integer"
                                                            >0</j.0:hasDimensionality>
                                                            <j.0:hasRoleID
                                                             rdf:datatype=
                                                            "http://www.w3.org/2001/XMLSchema#string"
                                                            >HEADS</j.0:hasRoleID>
                                                      </rdf:Description>
                                                </j.0:satisfiesRole>
                                          </j.0:Port>
                                    </j.0:hasOutputPort>
                                    <j.0:hasOutputPort>
                                          <j.0:Port rdf:ID="MODFLOW-USG_node_LIST">
                                                <j.0:satisfiesRole>
                                                      <rdf:Description rdf:ID="MODFLOW-USG_node_LIST_role">
                                                            <j.0:hasDimensionality
                                                             rdf:datatype=
                                                            "http://www.w3.org/2001/XMLSchema#integer"
                                                            >0</j.0:hasDimensionality>
                                                            <j.0:hasRoleID
                                                             rdf:datatype=
                                                            "http://www.w3.org/2001/XMLSchema#string"
                                                            >LIST</j.0:hasRoleID>
                                                      </rdf:Description>
                                                </j.0:satisfiesRole>
                                          </j.0:Port>
                                    </j.0:hasOutputPort>
                                    <j.0:hasInputPort rdf:resource="#MODFLOW-USG_node_OutputControl"/>
                                    <j.0:hasInputPort rdf:resource="#MODFLOW-USG_node_DRN"/>
                                    <j.0:hasComponent>
                                          <rdf:Description rdf:ID="MODFLOW-USG_node_comp">
                                                <j.0:isConcrete
                                                 rdf:datatype=
                                                "http://www.w3.org/2001/XMLSchema#boolean"
                                                >true</j.0:isConcrete>
                                                <j.0:hasComponentBinding rdf:resource="../components/library.owl#MODFLOW-USG"/>
                                          </rdf:Description>
                                    </j.0:hasComponent>
                                    <rdfs:comment rdf:datatype=
                                    "http://www.w3.org/2001/XMLSchema#string"
                                    >center:x=411.4964668273926,y=103.32094860076904</rdfs:comment>
                                    <j.0:hasInputPort rdf:resource="#MODFLOW-USG_node_WELL"/>
                                    <j.0:hasOutputPort>
                                          <j.0:Port rdf:ID="MODFLOW-USG_node_BUDGET">
                                                <j.0:satisfiesRole>
                                                      <rdf:Description rdf:ID="MODFLOW-USG_node_BUDGET_role">
                                                            <j.0:hasDimensionality
                                                             rdf:datatype=
                                                            "http://www.w3.org/2001/XMLSchema#integer"
                                                            >0</j.0:hasDimensionality>
                                                            <j.0:hasRoleID
                                                             rdf:datatype=
                                                            "http://www.w3.org/2001/XMLSchema#string"
                                                            >BUDGET</j.0:hasRoleID>
                                                      </rdf:Description>
                                                </j.0:satisfiesRole>
                                          </j.0:Port>
                                    </j.0:hasOutputPort>
                                    <j.0:hasComponentSetCreationRule>
                                          <j.0:ComponentSetRule rdf:ID="MODFLOW-USG_node_crule">
                                                <j.0:createSetsOn rdf:resource="#MODFLOW-USG_node_comp"/>
                                                <j.0:createWorkflowSets
                                                 rdf:datatype=
                                                "http://www.w3.org/2001/XMLSchema#boolean"
                                                >true</j.0:createWorkflowSets>
                                          </j.0:ComponentSetRule>
                                    </j.0:hasComponentSetCreationRule>
                                    <j.0:hasInputPort rdf:resource="#MODFLOW-USG_node_RECHARGE"/>
                                    <j.0:hasInputPort rdf:resource="#MODFLOW-USG_node_HFB"/>
                                    <j.0:hasOutputPort>
                                          <j.0:Port rdf:ID="MODFLOW-USG_node_GLOBAL">
                                                <j.0:satisfiesRole>
                                                      <rdf:Description rdf:ID="MODFLOW-USG_node_GLOBAL_role">
                                                            <j.0:hasDimensionality
                                                             rdf:datatype=
                                                            "http://www.w3.org/2001/XMLSchema#integer"
                                                            >0</j.0:hasDimensionality>
                                                            <j.0:hasRoleID
                                                             rdf:datatype=
                                                            "http://www.w3.org/2001/XMLSchema#string"
                                                            >GLOBAL</j.0:hasRoleID>
                                                      </rdf:Description>
                                                </j.0:satisfiesRole>
                                          </j.0:Port>
                                    </j.0:hasOutputPort>
                                    <j.0:hasInputPort rdf:resource="#MODFLOW-USG_node_SIP"/>
                                    <j.0:hasInputPort rdf:resource="#MODFLOW-USG_node_BAS"/>
                                    <j.0:hasInputPort rdf:resource="#MODFLOW-USG_node_NAM"/>
                                    <j.0:hasInputPort rdf:resource="#MODFLOW-USG_node_PCG"/>
                              </j.0:Node>
                        </j.0:hasOriginNode>
                        <j.0:hasOriginPort rdf:resource="#MODFLOW-USG_node_LIST"/>
                  </j.0:OutputLink>
            </j.0:hasLink>
            <j.0:hasLink>
                  <j.0:InputLink rdf:ID="MODFLOW-USG_node_BCF_input">
                        <j.0:hasVariable rdf:resource="#BCF"/>
                        <j.0:hasDestinationNode rdf:resource="#MODFLOW-USG_node"/>
                        <j.0:hasDestinationPort rdf:resource="#MODFLOW-USG_node_BCF"/>
                  </j.0:InputLink>
            </j.0:hasLink>
            <j.0:hasInputRole>
                  <j.0:Role rdf:ID="BAS_irole">
                        <j.0:hasDimensionality rdf:datatype="http://www.w3.org/2001/XMLSchema#integer"
                        >0</j.0:hasDimensionality>
                        <j.0:mapsToVariable>
                              <j.0:DataVariable rdf:ID="BAS">
                                    <rdfs:comment rdf:datatype=
                                    "http://www.w3.org/2001/XMLSchema#string"
                                    >center:x=43.000263571739204,y=29.991374015808105</rdfs:comment>
                              </j.0:DataVariable>
                        </j.0:mapsToVariable>
                        <j.0:hasRoleID rdf:datatype="http://www.w3.org/2001/XMLSchema#string"
                        >MODFLOW-USG_node_BAS</j.0:hasRoleID>
                  </j.0:Role>
            </j.0:hasInputRole>
            <j.0:hasNode>
                  <j.0:Node rdf:ID="ZoneBudget_node">
                        <j.0:hasComponentSetCreationRule>
                              <j.0:ComponentSetRule rdf:ID="ZoneBudget_node_crule">
                                    <j.0:createSetsOn>
                                          <rdf:Description rdf:ID="ZoneBudget_node_comp">
                                                <j.0:isConcrete
                                                 rdf:datatype=
                                                "http://www.w3.org/2001/XMLSchema#boolean"
                                                >true</j.0:isConcrete>
                                                <j.0:hasComponentBinding rdf:resource="../components/library.owl#ZoneBudget"/>
                                          </rdf:Description>
                                    </j.0:createSetsOn>
                                    <j.0:createWorkflowSets rdf:datatype=
                                    "http://www.w3.org/2001/XMLSchema#boolean"
                                    >true</j.0:createWorkflowSets>
                              </j.0:ComponentSetRule>
                        </j.0:hasComponentSetCreationRule>
                        <j.0:hasInputPort>
                              <j.0:Port rdf:ID="ZoneBudget_node_budget">
                                    <j.0:satisfiesRole>
                                          <rdf:Description rdf:ID="ZoneBudget_node_budget_role">
                                                <j.0:hasDimensionality
                                                 rdf:datatype=
                                                "http://www.w3.org/2001/XMLSchema#integer"
                                                >0</j.0:hasDimensionality>
                                                <j.0:hasRoleID
                                                 rdf:datatype=
                                                "http://www.w3.org/2001/XMLSchema#string"
                                                >budget</j.0:hasRoleID>
                                          </rdf:Description>
                                    </j.0:satisfiesRole>
                              </j.0:Port>
                        </j.0:hasInputPort>
                        <j.0:hasInputPort>
                              <j.0:Port rdf:ID="ZoneBudget_node_zone_map">
                                    <j.0:satisfiesRole>