<?xml version="1.0"?>
<rdf:RDF
    xmlns:rdf="http://www.w3.org/1999/02/22-rdf-syntax-ns#"
    xmlns:j.0="http://www.wings-workflows.org/ontology/workflow.owl#"
    xmlns:owl="http://www.w3.org/2002/07/owl#"
    xmlns:rdfs="http://www.w3.org/2000/01/rdf-schema#"
    xmlns:xsd="http://www.w3.org/2001/XMLSchema#"
      xml:base="http://localhost:8080/wings-portal/export/users/lucas/TACC/workflows/WaterBudgetAnalysis.owl">
      <owl:Ontology rdf:about="">
            <owl:imports rdf:resource="http://www.wings-workflows.org/ontology/workflow.owl"/>
      </owl:Ontology>
      <j.0:WorkflowTemplate rdf:ID="WaterBudgetAnalysis">
            <j.0:hasLink>
                  <j.0:OutputLink rdf:ID="MODFLOW-NWT_node_DDOWN_output">
                        <j.0:hasVariable>
                              <j.0:DataVariable rdf:ID="DDOWN">
                                    <rdfs:comment rdf:datatype=
                                    "http://www.w3.org/2001/XMLSchema#string"
                                    >center:x=445.6,y=176.65537548065186</rdfs:comment>
                              </j.0:DataVariable>
                        </j.0:hasVariable>
                        <j.0:hasOriginNode>
                              <j.0:Node rdf:ID="MODFLOW-NWT_node">
                                    <j.0:hasInputPort>
                                          <j.0:Port rdf:ID="MODFLOW-NWT_node_WELL">
                                                <j.0:satisfiesRole>
                                                      <rdf:Description rdf:ID="MODFLOW-NWT_node_WELL_role">
                                                            <j.0:hasDimensionality
                                                             rdf:datatype=
                                                            "http://www.w3.org/2001/XMLSchema#integer"
                                                            >0</j.0:hasDimensionality>
                                                            <j.0:hasRoleID
                                                             rdf:datatype=
                                                            "http://www.w3.org/2001/XMLSchema#string"
                                                            >WELL</j.0:hasRoleID>
                                                      </rdf:Description>
                                                </j.0:satisfiesRole>
                                          </j.0:Port>
                                    </j.0:hasInputPort>
                                    <j.0:hasInputPort>
                                          <j.0:Port rdf:ID="MODFLOW-NWT_node_RECHARGE">
                                                <j.0:satisfiesRole>
                                                      <rdf:Description rdf:ID="MODFLOW-NWT_node_RECHARGE_role">
                                                            <j.0:hasDimensionality
                                                             rdf:datatype=
                                                            "http://www.w3.org/2001/XMLSchema#integer"
                                                            >0</j.0:hasDimensionality>
                                                            <j.0:hasRoleID
                                                             rdf:datatype=
                                                            "http://www.w3.org/2001/XMLSchema#string"
                                                            >RECHARGE</j.0:hasRoleID>
                                                      </rdf:Description>
                                                </j.0:satisfiesRole>
                                          </j.0:Port>
                                    </j.0:hasInputPort>
                                    <j.0:hasInputPort>
                                          <j.0:Port rdf:ID="MODFLOW-NWT_node_OutputControl">
                                                <j.0:satisfiesRole>
                                                      <rdf:Description rdf:ID="MODFLOW-NWT_node_OutputControl_role">
                                                            <j.0:hasDimensionality
                                                             rdf:datatype=
                                                            "http://www.w3.org/2001/XMLSchema#integer"
                                                            >0</j.0:hasDimensionality>
                                                            <j.0:hasRoleID
                                                             rdf:datatype=
                                                            "http://www.w3.org/2001/XMLSchema#string"
                                                            >OutputControl</j.0:hasRoleID>
                                                      </rdf:Description>
                                                </j.0:satisfiesRole>
                                          </j.0:Port>
                                    </j.0:hasInputPort>
                                    <j.0:hasOutputPort>
                                          <j.0:Port rdf:ID="MODFLOW-NWT_node_LIST">
                                                <j.0:satisfiesRole>
                                                      <rdf:Description rdf:ID="MODFLOW-NWT_node_LIST_role">
                                                            <j.0:hasDimensionality
                                                             rdf:datatype=
                                                            "http://www.w3.org/2001/XMLSchema#integer"
                                                            >0</j.0:hasDimensionality>
                                                            <j.0:hasRoleID
                                                             rdf:datatype=
                                                            "http://www.w3.org/2001/XMLSchema#string"
                                                            >LIST</j.0:hasRoleID>
                                                      </rdf:Description>
                                                </j.0:satisfiesRole>
                                          </j.0:Port>
                                    </j.0:hasOutputPort>
                                    <j.0:hasOutputPort>
                                          <j.0:Port rdf:ID="MODFLOW-NWT_node_BUDGET">
                                                <j.0:satisfiesRole>
                                                      <rdf:Description rdf:ID="MODFLOW-NWT_node_BUDGET_role">
                                                            <j.0:hasDimensionality
                                                             rdf:datatype=
                                                            "http://www.w3.org/2001/XMLSchema#integer"
                                                            >0</j.0:hasDimensionality>
                                                            <j.0:hasRoleID
                                                             rdf:datatype=
                                                            "http://www.w3.org/2001/XMLSchema#string"
                                                            >BUDGET</j.0:hasRoleID>
                                                      </rdf:Description>
                                                </j.0:satisfiesRole>
                                          </j.0:Port>
                                    </j.0:hasOutputPort>
                                    <j.0:hasInputPort>
                                          <j.0:Port rdf:ID="MODFLOW-NWT_node_BAS">
                                                <j.0:satisfiesRole>
                                                      <rdf:Description rdf:ID="MODFLOW-NWT_node_BAS_role">
                                                            <j.0:hasDimensionality
                                                             rdf:datatype=
                                                            "http://www.w3.org/2001/XMLSchema#integer"
                                                            >0</j.0:hasDimensionality>
                                                            <j.0:hasRoleID
                                                             rdf:datatype=
                                                            "http://www.w3.org/2001/XMLSchema#string"
                                                            >BAS</j.0:hasRoleID>
                                                      </rdf:Description>
                                                </j.0:satisfiesRole>
                                          </j.0:Port>
                                    </j.0:hasInputPort>
                                    <j.0:hasOutputPort>
                                          <j.0:Port rdf:ID="MODFLOW-NWT_node_DDOWN">
                                                <j.0:satisfiesRole>
                                                      <rdf:Description rdf:ID="MODFLOW-NWT_node_DDOWN_role">
                                                            <j.0:hasDimensionality
                                                             rdf:datatype=
                                                            "http://www.w3.org/2001/XMLSchema#integer"
                                                            >0</j.0:hasDimensionality>
                                                            <j.0:hasRoleID
                                                             rdf:datatype=
                                                            "http://www.w3.org/2001/XMLSchema#string"
                                                            >DDOWN</j.0:hasRoleID>
                                                      </rdf:Description>
                                                </j.0:satisfiesRole>
                                          </j.0:Port>
                                    </j.0:hasOutputPort>
                                    <j.0:hasComponent>
                                          <rdf:Description rdf:ID="MODFLOW-NWT_node_comp">
                                                <j.0:isConcrete
                                                 rdf:datatype=
                                                "http://www.w3.org/2001/XMLSchema#boolean"
                                                >true</j.0:isConcrete>
                                                <j.0:hasComponentBinding rdf:resource="../components/library.owl#MODFLOW-NWT"/>
                                          </rdf:Description>
                                    </j.0:hasComponent>
                                    <j.0:hasInputPort>
                                          <j.0:Port rdf:ID="MODFLOW-NWT_node_MT3D">
                                                <j.0:satisfiesRole>
                                                      <rdf:Description rdf:ID="MODFLOW-NWT_node_MT3D_role">
                                                            <j.0:hasDimensionality
                                                             rdf:datatype=
                                                            "http://www.w3.org/2001/XMLSchema#integer"
                                                            >0</j.0:hasDimensionality>
                                                            <j.0:hasRoleID
                                                             rdf:datatype=
                                                            "http://www.w3.org/2001/XMLSchema#string"
                                                            >MT3D</j.0:hasRoleID>
                                                      </rdf:Description>
                                                </j.0:satisfiesRole>
                                          </j.0:Port>
                                    </j.0:hasInputPort>
                                    <j.0:hasInputPort>
                                          <j.0:Port rdf:ID="MODFLOW-NWT_node_NWT">
                                                <j.0:satisfiesRole>
                                                      <rdf:Description rdf:ID="MODFLOW-NWT_node_NWT_role">
                                                            <j.0:hasDimensionality
                                                             rdf:datatype=
                                                            "http://www.w3.org/2001/XMLSchema#integer"
                                                            >0</j.0:hasDimensionality>
                                                            <j.0:hasRoleID
                                                             rdf:datatype=
                                                            "http://www.w3.org/2001/XMLSchema#string"
                                                            >NWT</j.0:hasRoleID>
                                                      </rdf:Description>
                                                </j.0:satisfiesRole>
                                          </j.0:Port>
                                    </j.0:hasInputPort>
                                    <j.0:hasInputPort>
                                          <j.0:Port rdf:ID="MODFLOW-NWT_node_PCG">
                                                <j.0:satisfiesRole>
                                                      <rdf:Description rdf:ID="MODFLOW-NWT_node_PCG_role">
                                                            <j.0:hasDimensionality
                                                             rdf:datatype=
                                                            "http://www.w3.org/2001/XMLSchema#integer"
                                                            >0</j.0:hasDimensionality>
                                                            <j.0:hasRoleID
                                                             rdf:datatype=
                                                            "http://www.w3.org/2001/XMLSchema#string"
                                                            >PCG</j.0:hasRoleID>
                                                      </rdf:Description>
                                                </j.0:satisfiesRole>
                                          </j.0:Port>
                                    </j.0:hasInputPort>
                                    <j.0:hasInputPort>
                                          <j.0:Port rdf:ID="MODFLOW-NWT_node_NAM">
                                                <j.0:satisfiesRole>
                                                      <rdf:Description rdf:ID="MODFLOW-NWT_node_NAM_role">
                                                            <j.0:hasDimensionality
                                                             rdf:datatype=
                                                            "http://www.w3.org/2001/XMLSchema#integer"
                                                            >0</j.0:hasDimensionality>
                                                            <j.0:hasRoleID
                                                             rdf:datatype=
                                                            "http://www.w3.org/2001/XMLSchema#string"
                                                            >NAM</j.0:hasRoleID>
                                                      </rdf:Description>
                                                </j.0:satisfiesRole>
                                          </j.0:Port>
                                    </j.0:hasInputPort>
                                    <rdfs:comment rdf:datatype=
                                    "http://www.w3.org/2001/XMLSchema#string"
                                    >center:x=485.20000000000005,y=103.32094860076904</rdfs:comment>
                                    <j.0:hasInputPort>
                                          <j.0:Port rdf:ID="MODFLOW-NWT_node_BCF">
                                                <j.0:satisfiesRole>
                                                      <rdf:Description rdf:ID="MODFLOW-NWT_node_BCF_role">
                                                            <j.0:hasDimensionality
                                                             rdf:datatype=
                                                            "http://www.w3.org/2001/XMLSchema#integer"
                                                            >0</j.0:hasDimensionality>
                                                            <j.0:hasRoleID
                                                             rdf:datatype=
                                                            "http://www.w3.org/2001/XMLSchema#string"
                                                            >BCF</j.0:hasRoleID>
                                                      </rdf:Description>
                                                </j.0:satisfiesRole>
                                          </j.0:Port>
                                    </j.0:hasInputPort>
                                    <j.0:hasInputPort>
                                          <j.0:Port rdf:ID="MODFLOW-NWT_node_HFB">
                                                <j.0:satisfiesRole>
                                                      <rdf:Description rdf:ID="MODFLOW-NWT_node_HFB_role">
                                                            <j.0:hasDimensionality
                                                             rdf:datatype=
                                                            "http://www.w3.org/2001/XMLSchema#integer"
                                                            >0</j.0:hasDimensionality>
                                                            <j.0:hasRoleID
                                                             rdf:datatype=
                                                            "http://www.w3.org/2001/XMLSchema#string"
                                                            >HFB</j.0:hasRoleID>
                                                      </rdf:Description>
                                                </j.0:satisfiesRole>
                                          </j.0:Port>
                                    </j.0:hasInputPort>
                                    <j.0:hasPortSetCreationRule>
                                          <j.0:PortSetRule rdf:ID="MODFLOW-NWT_node_prule">
                                                <j.0:createSetsOn>
                                                      <j.0:XProduct rdf:ID="_xprod-ba785bf2-4939-4f9a-8cb0-de8f953e0fd5">
                                                            <j.0:hasExpressionArgument rdf:resource="#MODFLOW-NWT_node_BCF"/>
                                                            <j.0:hasExpressionArgument rdf:resource="#MODFLOW-NWT_node_NAM"/>
                                                            <j.0:hasExpressionArgument rdf:resource="#MODFLOW-NWT_node_MT3D"/>
                                                            <j.0:hasExpressionArgument>
                                                            
      <j.0:Port rdf:ID="MODFLOW-NWT_node_DRN">
            <j.0:satisfiesRole>
                  <rdf:Description rdf:ID="MODFLOW-NWT_node_DRN_role">
                        <j.0:hasDimensionality rdf:datatype="http://www.w3.org/2001/XMLSchema#integer"
                        >0</j.0:hasDimensionality>
                        <j.0:hasRoleID rdf:datatype="http://www.w3.org/2001/XMLSchema#string"
                        >DRN</j.0:hasRoleID>
                  </rdf:Description>
            </j.0:satisfiesRole>
      </j.0:Port>                                           </j.0:hasExpressionArgument>
                                                            <j.0:hasExpressionArgument rdf:resource="#MODFLOW-NWT_node_NWT"/>
                                                            <j.0:hasExpressionArgument>
                                                            
      <j.0:Port rdf:ID="MODFLOW-NWT_node_DIS">
            <j.0:satisfiesRole>
                  <rdf:Description rdf:ID="MODFLOW-NWT_node_DIS_role">
                        <j.0:hasDimensionality rdf:datatype="http://www.w3.org/2001/XMLSchema#integer"
                        >0</j.0:hasDimensionality>
                        <j.0:hasRoleID rdf:datatype="http://www.w3.org/2001/XMLSchema#string"
                        >DIS</j.0:hasRoleID>
                  </rdf:Description>
            </j.0:satisfiesRole>
      </j.0:Port>                                           </j.0:hasExpressionArgument>
                                                            <j.0:hasExpressionArgument rdf:resource="#MODFLOW-NWT_node_OutputControl"/>
                                                            <j.0:hasExpressionArgument rdf:resource="#MODFLOW-NWT_node_RECHARGE"/>
                                                            <j.0:hasExpressionArgument rdf:resource="#MODFLOW-NWT_node_HFB"/>
                                                            <j.0:hasExpressionArgument rdf:resource="#MODFLOW-NWT_node_BAS"/>
                                                            <j.0:hasExpressionArgument rdf:resource="#MODFLOW-NWT_node_WELL"/>
                                                            <j.0:hasExpressionArgument>
                                                            
      <j.0:Port rdf:ID="MODFLOW-NWT_node_UPW">
            <j.0:satisfiesRole>
                  <rdf:Description rdf:ID="MODFLOW-NWT_node_UPW_role">
                        <j.0:hasDimensionality rdf:datatype="http://www.w3.org/2001/XMLSchema#integer"
                        >0</j.0:hasDimensionality>
                        <j.0:hasRoleID rdf:datatype="http://www.w3.org/2001/XMLSchema#string"
                        >UPW</j.0:hasRoleID>
                  </rdf:Description>
            </j.0:satisfiesRole>
      </j.0:Port>                                           </j.0:hasExpressionArgument>
                                                            <j.0:hasExpressionArgument rdf:resource="#MODFLOW-NWT_node_PCG"/>
                                                      </j.0:XProduct>
                                                </j.0:createSetsOn>
                                                <j.0:createComponentSets
                                                 rdf:datatype=
                                                "http://www.w3.org/2001/XMLSchema#boolean"
                                                >true</j.0:createComponentSets>
                                          </j.0:PortSetRule>
                                    </j.0:hasPortSetCreationRule>
                                    <j.0:hasInputPort rdf:resource="#MODFLOW-NWT_node_DIS"/>
                                    <j.0:hasOutputPort>
                                          <j.0:Port rdf:ID="MODFLOW-NWT_node_HEADS">
                                                <j.0:satisfiesRole>
                                                      <rdf:Description rdf:ID="MODFLOW-NWT_node_HEADS_role">
                                                            <j.0:hasDimensionality
                                                             rdf:datatype=
                                                            "http://www.w3.org/2001/XMLSchema#integer"
                                                            >0</j.0:hasDimensionality>
                                                            <j.0:hasRoleID
                                                             rdf:datatype=
                                                            "http://www.w3.org/2001/XMLSchema#string"
                                                            >HEADS</j.0:hasRoleID>
                                                      </rdf:Description>
                                                </j.0:satisfiesRole>
                                          </j.0:Port>
                                    </j.0:hasOutputPort>
                                    <j.0:hasInputPort rdf:resource="#MODFLOW-NWT_node_UPW"/>
                                    <j.0:hasInputPort rdf:resource="#MODFLOW-NWT_node_DRN"/>
                                    <j.0:hasComponentSetCreationRule>
                                          <j.0:ComponentSetRule rdf:ID="MODFLOW-NWT_node_crule">
                                                <j.0:createSetsOn rdf:resource="#MODFLOW-NWT_node_comp"/>
                                                <j.0:createWorkflowSets
                                                 rdf:datatype=
                                                "http://www.w3.org/2001/XMLSchema#boolean"
                                                >true</j.0:createWorkflowSets>
                                          </j.0:ComponentSetRule>
                                    </j.0:hasComponentSetCreationRule>
                              </j.0:Node>
                        </j.0:hasOriginNode>
                        <j.0:hasOriginPort rdf:resource="#MODFLOW-NWT_node_DDOWN"/>
                  </j.0:OutputLink>
            </j.0:hasLink>
            <j.0:hasLink>
                  <j.0:InputLink rdf:ID="MODFLOW-NWT_node_NAM_input">
                        <j.0:hasVariable>
                              <j.0:DataVariable rdf:ID="NAM">
                                    <rdfs:comment rdf:datatype=
                                    "http://www.w3.org/2001/XMLSchema#string"
                                    >center:x=485.20000000000005,y=29.991374015808105</rdfs:comment>
                              </j.0:DataVariable>
                        </j.0:hasVariable>
                        <j.0:hasDestinationNode rdf:resource="#MODFLOW-NWT_node"/>
                        <j.0:hasDestinationPort rdf:resource="#MODFLOW-NWT_node_NAM"/>
                  </j.0:InputLink>
            </j.0:hasLink>
            <j.0:hasLink>
                  <j.0:InOutLink rdf:ID="ZoneBudget_node_processed_data_to_VisualizeBudget_node_processed_data">
                        <j.0:hasDestinationNode>
                              <j.0:Node rdf:ID="VisualizeBudget_node">
                                    <j.0:hasComponent>
                                          <rdf:Description rdf:ID="VisualizeBudget_node_comp">
                                                <j.0:isConcrete
                                                 rdf:datatype=
                                                "http://www.w3.org/2001/XMLSchema#boolean"
                                                >true</j.0:isConcrete>
                                                <j.0:hasComponentBinding rdf:resource="../components/library.owl#VisualizeBudget"/>
                                          </rdf:Description>
                                    </j.0:hasComponent>
                                    <j.0:hasComponentSetCreationRule>
                                          <j.0:ComponentSetRule rdf:ID="VisualizeBudget_node_crule">
                                                <j.0:createSetsOn rdf:resource="#VisualizeBudget_node_comp"/>
                                                <j.0:createWorkflowSets
                                                 rdf:datatype=
                                                "http://www.w3.org/2001/XMLSchema#boolean"
                                                >true</j.0:createWorkflowSets>
                                          </j.0:ComponentSetRule>
                                    </j.0:hasComponentSetCreationRule>
                                    <j.0:hasInputPort>
                                          <j.0:Port rdf:ID="VisualizeBudget_node_processed_data">
                                                <j.0:satisfiesRole>
                                                      <rdf:Description rdf:ID="VisualizeBudget_node_processed_data_role">
                                                            <j.0:hasDimensionality
                                                             rdf:datatype=
                                                            "http://www.w3.org/2001/XMLSchema#integer"
                                                            >0</j.0:hasDimensionality>
                                                            <j.0:hasRoleID
                                                             rdf:datatype=
                                                            "http://www.w3.org/2001/XMLSchema#string"
                                                            >processed_data</j.0:hasRoleID>
                                                      </rdf:Description>
                                                </j.0:satisfiesRole>
                                          </j.0:Port>
                                    </j.0:hasInputPort>
                                    <j.0:hasOutputPort>
                                          <j.0:Port rdf:ID="VisualizeBudget_node_flux_x_time_for_storage_and_capture">
                                                <j.0:satisfiesRole>
                                                      <rdf:Description rdf:ID="VisualizeBudget_node_flux_x_time_for_storage_and_capture_role">
                                                            <j.0:hasDimensionality
                                                             rdf:datatype=
                                                            "http://www.w3.org/2001/XMLSchema#integer"
                                                            >0</j.0:hasDimensionality>
                                                            <j.0:hasRoleID